<additional>
    <poi id="M32037" type="station" x="-71.088163376" y="42.362356782" color="0,0,1" layer="100"/>
    <poi id="M32053" type="station" x="-71.080272794" y="42.361697435" color="0,0,1" layer="100"/>
    <poi id="C32063" type="station" x="-71.08336953450817" y="42.34135615767354" color="0,0,1" layer="100"/>
    <poi id="B32063" type="station" x="-71.10124647617339" y="42.33329254719182" color="0,0,1" layer="100"/>
    <poi id="S32023" type="station" x="-71.10402522613185" y="42.38100143038052" color="0,0,1" layer="100"/>
    <poi id="C32064" type="station" x="-71.053419113" y="42.320072532" color="0,0,1" layer="100"/>
    <poi id="S32013" type="station" x="-71.10594004465383" y="42.39778339961249" color="0,0,1" layer="100"/>
    <poi id="S32042" type="station" x="-71.107833" y="42.398444" color="0,0,1" layer="100"/>
    <poi id="M32083" type="station" x="-71.086543798" y="42.369074702" color="0,0,1" layer="100"/>
    <poi id="C32021" type="station" x="-71.031749964" y="42.34482646" color="0,0,1" layer="100"/>
    <poi id="S32004" type="station" x="-71.108569026" y="42.383641124" color="0,0,1" layer="100"/>
    <poi id="D32019" type="station" x="-71.062802076" y="42.352372289" color="0,0,1" layer="100"/>
    <poi id="M32018" type="station" x="-71.118483305" y="42.373244882" color="0,0,1" layer="100"/>
    <poi id="Z32998" type="station" x="-71.0873863200095" y="42.36412658996667" color="0,0,1" layer="100"/>
    <poi id="A32017" type="station" x="-71.13275302578586" y="42.34922469338298" color="0,0,1" layer="100"/>
    <poi id="B32008" type="station" x="-71.058426499" y="42.358255148" color="0,0,1" layer="100"/>
    <poi id="D32049" type="station" x="-71.0724207387284" y="42.34954403114251" color="0,0,1" layer="100"/>
    <poi id="A32056" type="station" x="-71.11004680395126" y="42.33661005730433" color="0,0,1" layer="100"/>
    <poi id="M32062" type="station" x="-71.10026478767395" y="42.37426713524931" color="0,0,1" layer="100"/>
    <poi id="B32002" type="station" x="-71.08798563480377" y="42.33624444796878" color="0,0,1" layer="100"/>
    <poi id="M32034" type="station" x="-71.070141554" y="42.369975567" color="0,0,1" layer="100"/>
    <poi id="C32027" type="station" x="-71.092225" y="42.309796" color="0,0,1" layer="100"/>
    <poi id="M32038" type="station" x="-71.116998434" y="42.369152784" color="0,0,1" layer="100"/>
    <poi id="M32065" type="station" x="-71.08579014980933" y="42.36955297756508" color="0,0,1" layer="100"/>
    <poi id="C32055" type="station" x="-71.071103692" y="42.287441015" color="0,0,1" layer="100"/>
    <poi id="V32004" type="station" x="-71.06546759905541" y="42.39648358247693" color="0,0,1" layer="100"/>
    <poi id="C32046" type="station" x="-71.128205" y="42.286307" color="0,0,1" layer="100"/>
    <poi id="C32037" type="station" x="-71.07929527759552" y="42.30412792739016" color="0,0,1" layer="100"/>
    <poi id="V32008" type="station" x="-71.052636027" y="42.410352468" color="0,0,1" layer="100"/>
    <poi id="G32002" type="station" x="-71.067793" y="42.42386" color="0,0,1" layer="100"/>
    <poi id="A32052" type="station" x="-71.124257445" y="42.367926002" color="0,0,1" layer="100"/>
    <poi id="M32042" type="station" x="-71.104046702" y="42.355448723" color="0,0,1" layer="100"/>
    <poi id="A32008" type="station" x="-71.105259657" y="42.347254753" color="0,0,1" layer="100"/>
    <poi id="D32007" type="station" x="-71.067877889" y="42.352503061" color="0,0,1" layer="100"/>
    <poi id="M32005" type="station" x="-71.09115600585936" y="42.3621312344991" color="0,0,1" layer="100"/>
    <poi id="S32017" type="station" x="-71.08318716287613" y="42.3876281075134" color="0,0,1" layer="100"/>
    <poi id="M32011" type="station" x="-71.102935195" y="42.365048885" color="0,0,1" layer="100"/>
    <poi id="D32029" type="station" x="-71.16031676530838" y="42.3489528466951" color="0,0,1" layer="100"/>
    <poi id="D32054" type="station" x="-71.145646811" y="42.346976042" color="0,0,1" layer="100"/>
    <poi id="M32049" type="station" x="-71.07200495972165" y="42.37197678467975" color="0,0,1" layer="100"/>
    <poi id="K32005" type="station" x="-71.120472193" y="42.333786368" color="0,0,1" layer="100"/>
    <poi id="K32017" type="station" x="-71.12490355968475" y="42.3443517550051" color="0,0,1" layer="100"/>
    <poi id="V32016" type="station" x="-71.04731440549585" y="42.40336946230013" color="0,0,1" layer="100"/>
    <poi id="D32011" type="station" x="-71.066128612" y="42.350756407" color="0,0,1" layer="100"/>
    <poi id="M32002" type="station" x="-71.09169" y="42.366277" color="0,0,1" layer="100"/>
    <poi id="A32022" type="station" x="-71.068687916" y="42.379190326" color="0,0,1" layer="100"/>
    <poi id="C32105" type="station" x="-71.109530687" y="42.28589952" color="0,0,1" layer="100"/>
    <poi id="T32006" type="station" x="-70.89183300733566" y="42.51142784358897" color="0,0,1" layer="100"/>
    <poi id="A32025" type="station" x="-71.064214945" y="42.365620375" color="0,0,1" layer="100"/>
    <poi id="A32006" type="station" x="-71.1182756971175" y="42.36426344063853" color="0,0,1" layer="100"/>
    <poi id="A32002" type="station" x="-71.11903488636017" y="42.35169201885973" color="0,0,1" layer="100"/>
    <poi id="W32002" type="station" x="-71.18573324459247" y="42.365260317694485" color="0,0,1" layer="100"/>
    <poi id="C32015" type="station" x="-71.075354" y="42.325333" color="0,0,1" layer="100"/>
    <poi id="V32003" type="station" x="-71.055786" y="42.406872" color="0,0,1" layer="100"/>
    <poi id="D32038" type="station" x="-71.063814878" y="42.374891877" color="0,0,1" layer="100"/>
    <poi id="M32026" type="station" x="-71.104459405" y="42.370756626" color="0,0,1" layer="100"/>
    <poi id="B32020" type="station" x="-71.100694" y="42.345733" color="0,0,1" layer="100"/>
    <poi id="D32042" type="station" x="-71.06781138111728" y="42.35182806892068" color="0,0,1" layer="100"/>
    <poi id="A32032" type="station" x="-71.03270328" y="42.374138832" color="0,0,1" layer="100"/>
    <poi id="M32068" type="station" x="-71.124487042" y="42.382961988" color="0,0,1" layer="100"/>
    <poi id="H32003" type="station" x="-71.03857017704286" y="42.39022671103383" color="0,0,1" layer="100"/>
    <poi id="C32017" type="station" x="-71.03877" y="42.335741" color="0,0,1" layer="100"/>
    <poi id="C32060" type="station" x="-71.07421449387857" y="42.34254913737952" color="0,0,1" layer="100"/>
    <poi id="M32051" type="station" x="-71.143478951426" y="42.38267827521855" color="0,0,1" layer="100"/>
    <poi id="M32055" type="station" x="-71.09522221614498" y="42.36599432867437" color="0,0,1" layer="100"/>
    <poi id="C32089" type="station" x="-71.115944028" y="42.296115041" color="0,0,1" layer="100"/>
    <poi id="S32036" type="station" x="-71.097713709" y="42.391664505" color="0,0,1" layer="100"/>
    <poi id="S32034" type="station" x="-71.10347712" y="42.379321694" color="0,0,1" layer="100"/>
    <poi id="S32011" type="station" x="-71.12590793383788" y="42.40087950159558" color="0,0,1" layer="100"/>
    <poi id="M32069" type="station" x="-71.15058331757609" y="42.39239749145834" color="0,0,1" layer="100"/>
    <poi id="M32063" type="station" x="-71.09930185605663" y="42.36860524248197" color="0,0,1" layer="100"/>
    <poi id="M32024" type="station" x="-71.125107" y="42.380287" color="0,0,1" layer="100"/>
    <poi id="S32019" type="station" x="-71.12011306006025" y="42.396386809455" color="0,0,1" layer="100"/>
    <poi id="T32017" type="station" x="-70.90166732668875" y="42.48628784971989" color="0,0,1" layer="100"/>
    <poi id="S32050" type="station" x="-71.09117388747109" y="42.375447604963405" color="0,0,1" layer="100"/>
    <poi id="T32009" type="station" x="-70.891444" y="42.503332" color="0,0,1" layer="100"/>
    <poi id="D32016" type="station" x="-71.071290374" y="42.360728383" color="0,0,1" layer="100"/>
    <poi id="V32013" type="station" x="-71.06041654944418" y="42.40616124132245" color="0,0,1" layer="100"/>
    <poi id="M32061" type="station" x="-71.09670273977825" y="42.36135837662249" color="0,0,1" layer="100"/>
    <poi id="A32035" type="station" x="-71.006044388" y="42.386827707" color="0,0,1" layer="100"/>
    <poi id="M32014" type="station" x="-71.114214" y="42.366621" color="0,0,1" layer="100"/>
    <poi id="D32006" type="station" x="-71.050877" y="42.363871" color="0,0,1" layer="100"/>
    <poi id="M32030" type="station" x="-71.10809952020645" y="42.36178043960605" color="0,0,1" layer="100"/>
    <poi id="M32031" type="station" x="-71.132788" y="42.388966" color="0,0,1" layer="100"/>
    <poi id="M32029" type="station" x="-71.119084" y="42.387995" color="0,0,1" layer="100"/>
    <poi id="R32002" type="station" x="-70.99272429943085" y="42.40715655698643" color="0,0,1" layer="100"/>
    <poi id="M32067" type="station" x="-71.089989901" y="42.371945739" color="0,0,1" layer="100"/>
    <poi id="M32023" type="station" x="-71.116919279" y="42.377991199" color="0,0,1" layer="100"/>
    <poi id="M32087" type="station" x="-71.11966431146357" y="42.37433925370521" color="0,0,1" layer="100"/>
    <poi id="M32075" type="station" x="-71.139056683" y="42.389552355" color="0,0,1" layer="100"/>
    <poi id="C32033" type="station" x="-71.0539" y="42.3106" color="0,0,1" layer="100"/>
    <poi id="A32058" type="station" x="-71.059624" y="42.359322" color="0,0,1" layer="100"/>
    <poi id="A32009" type="station" x="-71.076742649" y="42.341329217" color="0,0,1" layer="100"/>
    <poi id="S32053" type="station" x="-71.085974813" y="42.377710819" color="0,0,1" layer="100"/>
    <poi id="D32034" type="station" x="-71.13997217276847" y="42.348358628170445" color="0,0,1" layer="100"/>
    <poi id="D32017" type="station" x="-71.07286870479584" y="42.35553628489709" color="0,0,1" layer="100"/>
    <poi id="C32035" type="station" x="-71.062179685" y="42.34372139" color="0,0,1" layer="100"/>
    <poi id="D32014" type="station" x="-71.063348" y="42.354979" color="0,0,1" layer="100"/>
    <poi id="M32017" type="station" x="-71.12098601080106" y="42.373328798874056" color="0,0,1" layer="100"/>
    <poi id="L32005" type="station" x="-71.14456963094199" y="42.40016804853787" color="0,0,1" layer="100"/>
    <poi id="T32012" type="station" x="-70.89684" y="42.523994" color="0,0,1" layer="100"/>
    <poi id="K32003" type="station" x="-71.11626680949485" y="42.33274392304887" color="0,0,1" layer="100"/>
    <poi id="C32005" type="station" x="-71.07903778553009" y="42.3350989929096" color="0,0,1" layer="100"/>
    <poi id="B32018" type="station" x="-71.08678414955648" y="42.34740620525209" color="0,0,1" layer="100"/>
    <poi id="C32032" type="station" x="-71.03764" y="42.3481" color="0,0,1" layer="100"/>
    <poi id="C32085" type="station" x="-71.153460383" y="42.286265135" color="0,0,1" layer="100"/>
    <poi id="A32051" type="station" x="-71.027786732" y="42.379206181" color="0,0,1" layer="100"/>
    <poi id="T32007 " type="station" x="-70.89478075504303" y="42.50182398896298" color="0,0,1" layer="100"/>
    <poi id="C32103" type="station" x="-71.080286" y="42.278747" color="0,0,1" layer="100"/>
    <poi id="S32018" type="station" x="-71.07746601104736" y="42.39223284004628" color="0,0,1" layer="100"/>
    <poi id="M32032" type="station" x="-71.08216792345047" y="42.36356015842989" color="0,0,1" layer="100"/>
    <poi id="L32002" type="station" x="-71.14906518727366" y="42.40935395518158" color="0,0,1" layer="100"/>
    <poi id="R32007" type="station" x="-71.008942" y="42.408088" color="0,0,1" layer="100"/>
    <poi id="B32059" type="station" x="-71.09218861916816" y="42.33286288486264" color="0,0,1" layer="100"/>
    <poi id="E32011" type="station" x="-71.096403956" y="42.319332957" color="0,0,1" layer="100"/>
    <poi id="B32034" type="station" x="-71.09732501226972" y="42.34465062887831" color="0,0,1" layer="100"/>
    <poi id="Z32999" type="station" x="-71.09746182817616" y="42.269988465946064" color="0,0,1" layer="100"/>
    <poi id="E32001" type="station" x="-71.11543" y="42.309054" color="0,0,1" layer="100"/>
    <poi id="K32002" type="station" x="-71.139063597" y="42.338193417" color="0,0,1" layer="100"/>
    <poi id="A32036" type="station" x="-71.0410200806291" y="42.373312125824704" color="0,0,1" layer="100"/>
    <poi id="B32029" type="station" x="-71.072902679" y="42.309596658" color="0,0,1" layer="100"/>
    <poi id="M32009" type="station" x="-71.10057324171066" y="42.36346469304347" color="0,0,1" layer="100"/>
    <poi id="S32006" type="station" x="-71.123024" y="42.396969" color="0,0,1" layer="100"/>
    <poi id="V32011" type="station" x="-71.06373842814719" y="42.39836059620832" color="0,0,1" layer="100"/>
    <poi id="D32015" type="station" x="-71.059367" y="42.351356" color="0,0,1" layer="100"/>
    <poi id="C32048" type="station" x="-71.12119538714069" y="42.29266592872725" color="0,0,1" layer="100"/>
    <poi id="W32005" type="station" x="-71.18751436471939" y="42.36759307632294" color="0,0,1" layer="100"/>
    <poi id="D32035" type="station" x="-71.13022770741735" y="42.34953016890375" color="0,0,1" layer="100"/>
    <poi id="D32031" type="station" x="-71.166263819" y="42.350497365" color="0,0,1" layer="100"/>
    <poi id="B32028" type="station" x="-71.081306696" y="42.307773352" color="0,0,1" layer="100"/>
    <poi id="E32016" type="station" x="-71.123798" y="42.351911" color="0,0,1" layer="100"/>
    <poi id="C32051" type="station" x="-71.02495" y="42.3334" color="0,0,1" layer="100"/>
    <poi id="F32008" type="station" x="-71.096565127" y="42.418046832" color="0,0,1" layer="100"/>
    <poi id="C32028" type="station" x="-71.044024" y="42.344792" color="0,0,1" layer="100"/>
    <poi id="A32005" type="station" x="-71.137776375" y="42.361482739" color="0,0,1" layer="100"/>
    <poi id="K32015" type="station" x="-71.115234017" y="42.344000697" color="0,0,1" layer="100"/>
    <poi id="M32003" type="station" x="-71.083199143" y="42.362322688" color="0,0,1" layer="100"/>
    <poi id="M32048" type="station" x="-71.08277142047882" y="42.36544486137399" color="0,0,1" layer="100"/>
    <poi id="L32001" type="station" x="-71.15336636682059" y="42.41606457115141" color="0,0,1" layer="100"/>
    <poi id="F32005" type="station" x="-71.09124541293568" y="42.423331368452885" color="0,0,1" layer="100"/>
    <poi id="A32044" type="station" x="-71.0333597474255" y="42.36774122306014" color="0,0,1" layer="100"/>
    <poi id="S32015" type="station" x="-71.090477943" y="42.391018867" color="0,0,1" layer="100"/>
    <poi id="M32086" type="station" x="-71.076274037" y="42.372285366" color="0,0,1" layer="100"/>
    <poi id="C32057" type="station" x="-71.0638403149278" y="42.34521562115022" color="0,0,1" layer="100"/>
    <poi id="C32107" type="station" x="-71.044247031" y="42.349967003" color="0,0,1" layer="100"/>
    <poi id="S32005" type="station" x="-71.114050746" y="42.385668039" color="0,0,1" layer="100"/>
    <poi id="B32055" type="station" x="-71.0901582" y="42.3294633" color="0,0,1" layer="100"/>
    <poi id="M32004" type="station" x="-71.08495473861694" y="42.3624278429124" color="0,0,1" layer="100"/>
    <poi id="M32059" type="station" x="-71.0875672" y="42.3636929" color="0,0,1" layer="100"/>
    <poi id="F32002" type="station" x="-71.108129382" y="42.417519093" color="0,0,1" layer="100"/>
    <poi id="C32043" type="station" x="-71.087111" y="42.2945833" color="0,0,1" layer="100"/>
    <poi id="K32010" type="station" x="-71.12135231494904" y="42.32464510949409" color="0,0,1" layer="100"/>
    <poi id="M32066" type="station" x="-71.14797130814623" y="42.39790817368333" color="0,0,1" layer="100"/>
    <poi id="B32027" type="station" x="-71.091859698" y="42.316851139" color="0,0,1" layer="100"/>
    <poi id="M32056" type="station" x="-71.12260755160605" y="42.39120971915856" color="0,0,1" layer="100"/>
    <poi id="B32023" type="station" x="-71.09126061201096" y="42.32143814183195" color="0,0,1" layer="100"/>
    <poi id="M32057" type="station" x="-71.13775670528412" y="42.38536765218425" color="0,0,1" layer="100"/>
    <poi id="S32054" type="station" x="-71.094428" y="42.377309" color="0,0,1" layer="100"/>
    <poi id="B32006" type="station" x="-71.10061883926392" y="42.34011512249236" color="0,0,1" layer="100"/>
    <poi id="M32035" type="station" x="-71.07654601335526" y="42.366446738529454" color="0,0,1" layer="100"/>
    <poi id="M32076" type="station" x="-71.1084133386612" y="42.35766247889882" color="0,0,1" layer="100"/>
    <poi id="A32000" type="station" x="-71.04457139968872" y="42.3533905070523" color="0,0,1" layer="100"/>
    <poi id="D32024" type="station" x="-71.069804668" y="42.356063724" color="0,0,1" layer="100"/>
    <poi id="D32000" type="station" x="-71.06528744101524" y="42.36125721646537" color="0,0,1" layer="100"/>
    <poi id="R32001" type="station" x="-70.99804848432541" y="42.40833705812975" color="0,0,1" layer="100"/>
    <poi id="B32064" type="station" x="-71.08767616843123" y="42.33420351352245" color="0,0,1" layer="100"/>
    <poi id="M32043" type="station" x="-71.13320231437683" y="42.37478628706384" color="0,0,1" layer="100"/>
    <poi id="D32060" type="station" x="-71.073014379" y="42.380101562" color="0,0,1" layer="100"/>
    <poi id="F32006" type="station" x="-71.09651505947113" y="42.40721644126376" color="0,0,1" layer="100"/>
    <poi id="S32041" type="station" x="-71.090098" y="42.380078" color="0,0,1" layer="100"/>
    <poi id="E32012" type="station" x="-71.101889014" y="42.324273348" color="0,0,1" layer="100"/>
    <poi id="E32010" type="station" x="-71.114249" y="42.300923" color="0,0,1" layer="100"/>
    <poi id="D32023" type="station" x="-71.048422098" y="42.378324389" color="0,0,1" layer="100"/>
    <poi id="A32003" type="station" x="-71.10813117" y="42.350385308" color="0,0,1" layer="100"/>
    <poi id="C32020" type="station" x="-71.028664" y="42.344827" color="0,0,1" layer="100"/>
    <poi id="A32031" type="station" x="-71.039431" y="42.369536" color="0,0,1" layer="100"/>
    <poi id="A32042" type="station" x="-71.05656400803126" y="42.35294569782581" color="0,0,1" layer="100"/>
    <poi id="B32058" type="station" x="-71.1001680795016" y="42.34734473177431" color="0,0,1" layer="100"/>
    <poi id="A32026" type="station" x="-71.053181" y="42.354659" color="0,0,1" layer="100"/>
    <poi id="V32005" type="station" x="-71.0724475979805" y="42.39329263225162" color="0,0,1" layer="100"/>
    <poi id="D32020" type="station" x="-71.064608" y="42.375603" color="0,0,1" layer="100"/>
    <poi id="C32016" type="station" x="-71.046282291" y="42.335995555" color="0,0,1" layer="100"/>
    <poi id="D32037" type="station" x="-71.060796738" y="42.380536199" color="0,0,1" layer="100"/>
    <poi id="T32004" type="station" x="-70.89570075273514" y="42.51803519796769" color="0,0,1" layer="100"/>
    <poi id="C32091" type="station" x="-71.03987016504107" y="42.341780891371904" color="0,0,1" layer="100"/>
    <poi id="H32002" type="station" x="-71.033252597" y="42.393358469" color="0,0,1" layer="100"/>
    <poi id="C32086" type="station" x="-71.15728851416861" y="42.28277901074054" color="0,0,1" layer="100"/>
    <poi id="C32000" type="station" x="-71.069616" y="42.345392" color="0,0,1" layer="100"/>
    <poi id="B32060" type="station" x="-71.103915" y="42.349609" color="0,0,1" layer="100"/>
    <poi id="S32040" type="station" x="-71.105587" y="42.392525" color="0,0,1" layer="100"/>
    <poi id="M32006" type="station" x="-71.093198" y="42.3581" color="0,0,1" layer="100"/>
    <poi id="M32025" type="station" x="-71.130263925" y="42.397780776" color="0,0,1" layer="100"/>
    <poi id="M32041" type="station" x="-71.101332664" y="42.359547138" color="0,0,1" layer="100"/>
    <poi id="M32080" type="station" x="-71.091853619" y="42.362891316" color="0,0,1" layer="100"/>
    <poi id="A32053" type="station" x="-71.05934903025626" y="42.36473898691789" color="0,0,1" layer="100"/>
    <poi id="B32033" type="station" x="-71.0988699646623" y="42.336585554561154" color="0,0,1" layer="100"/>
    <poi id="D32061" type="station" x="-71.08255058528357" y="42.33759485033856" color="0,0,1" layer="100"/>
    <poi id="D32059" type="station" x="-71.08038157224655" y="42.33584612997077" color="0,0,1" layer="100"/>
    <poi id="K32009" type="station" x="-71.1253622174263" y="42.32784317478686" color="0,0,1" layer="100"/>
    <poi id="W32001" type="station" x="-71.15683130688922" y="42.37207611472287" color="0,0,1" layer="100"/>
    <poi id="A32001" type="station" x="-71.137313" y="42.353334" color="0,0,1" layer="100"/>
    <poi id="B32003" type="station" x="-71.102918744" y="42.337408781" color="0,0,1" layer="100"/>
    <poi id="M32070" type="station" x="-71.086574197" y="42.360563874" color="0,0,1" layer="100"/>
    <poi id="M32081" type="station" x="-71.08634233665725" y="42.373079797934935" color="0,0,1" layer="100"/>
    <poi id="C32099" type="station" x="-71.09171926975249" y="42.29704126420948" color="0,0,1" layer="100"/>
    <poi id="C32077" type="station" x="-71.07648162175792" y="42.34474224772802" color="0,0,1" layer="100"/>
    <poi id="B32015" type="station" x="-71.10235286881107" y="42.34369055719748" color="0,0,1" layer="100"/>
    <poi id="K32004" type="station" x="-71.128314614" y="42.346611261" color="0,0,1" layer="100"/>
    <poi id="M32036" type="station" x="-71.129042" y="42.392766" color="0,0,1" layer="100"/>
    <poi id="K32012" type="station" x="-71.12070563810447" y="42.34012242696642" color="0,0,1" layer="100"/>
    <poi id="nan" type="station" x="-71.07" y="42.37" color="0,0,1" layer="100"/>
    <poi id="C32056" type="station" x="-71.08169049924982" y="42.338431795290944" color="0,0,1" layer="100"/>
    <poi id="M32045" type="station" x="-71.07116281986237" y="42.36769018024484" color="0,0,1" layer="100"/>
    <poi id="D32001" type="station" x="-71.14673539996147" y="42.35732921867706" color="0,0,1" layer="100"/>
    <poi id="S32047" type="station" x="-71.08071684837341" y="42.39301840035393" color="0,0,1" layer="100"/>
    <poi id="A32011" type="station" x="-71.12459778785706" y="42.36371276003581" color="0,0,1" layer="100"/>
    <poi id="D32022" type="station" x="-71.06446668505669" y="42.36590788445084" color="0,0,1" layer="100"/>
    <poi id="C32111" type="station" x="-71.078209519" y="42.303316832" color="0,0,1" layer="100"/>
    <poi id="M32052" type="station" x="-71.09759867191315" y="42.37119727759414" color="0,0,1" layer="100"/>
    <poi id="A32010" type="station" x="-71.055547" y="42.352175" color="0,0,1" layer="100"/>
    <poi id="M32022" type="station" x="-71.1138716340065" y="42.357218503176526" color="0,0,1" layer="100"/>
    <poi id="W32006" type="station" x="-71.17569386959076" y="42.36466403441681" color="0,0,1" layer="100"/>
    <poi id="M32074" type="station" x="-71.1538877" y="42.390719" color="0,0,1" layer="100"/>
    <poi id="C32066" type="station" x="-71.062739015" y="42.291710973" color="0,0,1" layer="100"/>
    <poi id="D32052" type="station" x="-71.11570891001975" y="42.3060456272408" color="0,0,1" layer="100"/>
    <poi id="V32012" type="station" x="-71.05281829839441" y="42.41532709603205" color="0,0,1" layer="100"/>
    <poi id="C32050" type="station" x="-71.09325" y="42.2773889" color="0,0,1" layer="100"/>
    <poi id="A32039" type="station" x="-71.01063068965232" y="42.385223935870535" color="0,0,1" layer="100"/>
    <poi id="D32021" type="station" x="-71.060292" y="42.371848" color="0,0,1" layer="100"/>
    <poi id="M32078" type="station" x="-71.0885418" y="42.3664204" color="0,0,1" layer="100"/>
    <poi id="C32092" type="station" x="-71.090986" y="42.286012" color="0,0,1" layer="100"/>
    <poi id="M32040" type="station" x="-71.10006093978882" y="42.36264779118595" color="0,0,1" layer="100"/>
    <poi id="D32045" type="station" x="-71.07782810926437" y="42.35096144421219" color="0,0,1" layer="100"/>
    <poi id="B32032" type="station" x="-71.05979576244862" y="42.3598253979878" color="0,0,1" layer="100"/>
    <poi id="C32014" type="station" x="-71.03662622" y="42.312250733" color="0,0,1" layer="100"/>
    <poi id="M32044" type="station" x="-71.13426981498378" y="42.381650612901176" color="0,0,1" layer="100"/>
    <poi id="C32110" type="station" x="-71.077948213" y="42.292129517" color="0,0,1" layer="100"/>
    <poi id="C32013" type="station" x="-71.05105865" y="42.320224881" color="0,0,1" layer="100"/>
    <poi id="V32015" type="station" x="-71.042953014" y="42.408153892" color="0,0,1" layer="100"/>
    <poi id="E32013" type="station" x="-71.122509" y="42.2568376" color="0,0,1" layer="100"/>
    <poi id="C32001" type="station" x="-71.095171" y="42.331184" color="0,0,1" layer="100"/>
    <poi id="M32013" type="station" x="-71.111075" y="42.373379" color="0,0,1" layer="100"/>
    <poi id="M32089" type="station" x="-71.111732721" y="42.363541961" color="0,0,1" layer="100"/>
    <poi id="A32041" type="station" x="-71.03918548682486" y="42.37544912547037" color="0,0,1" layer="100"/>
    <poi id="A32028" type="station" x="-71.01619094610214" y="42.383532520117896" color="0,0,1" layer="100"/>
    <poi id="K32011" type="station" x="-71.134139419" y="42.339897275" color="0,0,1" layer="100"/>
    <poi id="C32093" type="station" x="-71.06975" y="42.339194" color="0,0,1" layer="100"/>
    <poi id="E32006" type="station" x="-71.10014140605927" y="42.32293117195949" color="0,0,1" layer="100"/>
    <poi id="A32004" type="station" x="-71.1069839" y="42.338466287" color="0,0,1" layer="100"/>
    <poi id="S32014" type="station" x="-71.078425884" y="42.386045456" color="0,0,1" layer="100"/>
    <poi id="C32024" type="station" x="-71.052608" y="42.344137" color="0,0,1" layer="100"/>
    <poi id="C32044" type="station" x="-71.09372552493369" y="42.27462067181224" color="0,0,1" layer="100"/>
    <poi id="V32006" type="station" x="-71.04479655659816" y="42.41427294293992" color="0,0,1" layer="100"/>
    <poi id="M32060" type="station" x="-71.15412890911102" y="42.380788172914286" color="0,0,1" layer="100"/>
    <poi id="C32104" type="station" x="-71.12444" y="42.2556" color="0,0,1" layer="100"/>
    <poi id="M32012" type="station" x="-71.105495" y="42.366426" color="0,0,1" layer="100"/>
    <poi id="W32004" type="station" x="-71.15764854490408" y="42.36277388549605" color="0,0,1" layer="100"/>
    <poi id="D32036" type="station" x="-71.070612192" y="42.380784273" color="0,0,1" layer="100"/>
    <poi id="T32005" type="station" x="-70.896029115" y="42.523252368" color="0,0,1" layer="100"/>
    <poi id="B32017" type="station" x="-71.08386572459494" y="42.329842993518085" color="0,0,1" layer="100"/>
    <poi id="V32007" type="station" x="-71.05842225271772" y="42.412504507772105" color="0,0,1" layer="100"/>
    <poi id="E32005" type="station" x="-71.107341" y="42.310579" color="0,0,1" layer="100"/>
    <poi id="E32009" type="station" x="-71.065650463" y="42.292848587" color="0,0,1" layer="100"/>
    <poi id="A32033" type="station" x="-71.044201" y="42.370744" color="0,0,1" layer="100"/>
    <poi id="H32004" type="station" x="-71.030856" y="42.394531" color="0,0,1" layer="100"/>
    <poi id="C23109" type="station" x="-71.060221" y="42.279608" color="0,0,1" layer="100"/>
    <poi id="C32045" type="station" x="-71.093641" y="42.267902" color="0,0,1" layer="100"/>
    <poi id="T32015" type="station" x="-70.90614259243011" y="42.52989964975891" color="0,0,1" layer="100"/>
    <poi id="M32007" type="station" x="-71.094445" y="42.372969" color="0,0,1" layer="100"/>
    <poi id="S32001" type="station" x="-71.09812" y="42.386844" color="0,0,1" layer="100"/>
    <poi id="N32009" type="station" x="-71.167089" y="42.339879" color="0,0,1" layer="100"/>
    <poi id="A32030" type="station" x="-71.039972544" y="42.368873239" color="0,0,1" layer="100"/>
    <poi id="A32019" type="station" x="-71.128495336" y="42.364511967" color="0,0,1" layer="100"/>
    <poi id="D32008" type="station" x="-71.050699" y="42.357143" color="0,0,1" layer="100"/>
    <poi id="B32062" type="station" x="-71.090511" y="42.339202" color="0,0,1" layer="100"/>
    <poi id="B32014" type="station" x="-71.042630315" y="42.34884572" color="0,0,1" layer="100"/>
    <poi id="Z32997" type="station" x="-71.09261138044758" y="42.3384884941905" color="0,0,1" layer="100"/>
    <poi id="D32028" type="station" x="-71.15027189254761" y="42.34894857235593" color="0,0,1" layer="100"/>
    <poi id="S32035" type="station" x="-71.108848333" y="42.380514264" color="0,0,1" layer="100"/>
    <poi id="B32031" type="station" x="-71.06512248516083" y="42.30785224238503" color="0,0,1" layer="100"/>
    <poi id="D32009" type="station" x="-71.05691123" y="42.360752463" color="0,0,1" layer="100"/>
    <poi id="S32009" type="station" x="-71.123090148" y="42.404384851" color="0,0,1" layer="100"/>
    <poi id="F32001" type="station" x="-71.110444" y="42.411709" color="0,0,1" layer="100"/>
    <poi id="M32039" type="station" x="-71.11901879310608" y="42.38674802045056" color="0,0,1" layer="100"/>
    <poi id="C32041" type="station" x="-71.060595512" y="42.299561858" color="0,0,1" layer="100"/>
    <poi id="D32057" type="station" x="-71.05524927377701" y="42.3607028354884" color="0,0,1" layer="100"/>
    <poi id="B32007" type="station" x="-71.04436084628105" y="42.35148193460858" color="0,0,1" layer="100"/>
    <poi id="D32053" type="station" x="-71.07514854529654" y="42.38445225635844" color="0,0,1" layer="100"/>
    <poi id="C32034" type="station" x="-71.04569256305693" y="42.351586001198456" color="0,0,1" layer="100"/>
    <poi id="D32048" type="station" x="-71.06559185315746" y="42.34854543411198" color="0,0,1" layer="100"/>
    <poi id="M32033" type="station" x="-71.139459" y="42.396105" color="0,0,1" layer="100"/>
    <poi id="T32003" type="station" x="-70.88952362537384" y="42.51836788262243" color="0,0,1" layer="100"/>
    <poi id="A32050" type="station" x="-71.028760076" y="42.364151001" color="0,0,1" layer="100"/>
    <poi id="M32072" type="station" x="-71.08974037706501" y="42.363003781560096" color="0,0,1" layer="100"/>