<additional>
    <!-- Bluebikes stations color-coded by predicted demand -->
    <poi id="M32037" type="station" x="-71.088163376" y="42.362356782" color="1,0,0" layer="100">
        <param key="demand" value="35.2"/>
        <param key="name" value="Ames St at Main St"/>
    </poi>
    <poi id="M32053" type="station" x="-71.080272794" y="42.361697435" color="1,0,0" layer="100">
        <param key="demand" value="35.2"/>
        <param key="name" value="One Memorial Drive"/>
    </poi>
    <poi id="C32063" type="station" x="-71.08336953450817" y="42.34135615767354" color="1,0,0" layer="100">
        <param key="demand" value="35.2"/>
        <param key="name" value="Mass Ave T Station"/>
    </poi>
    <poi id="B32063" type="station" x="-71.10124647617339" y="42.33329254719182" color="1,0,0" layer="100">
        <param key="demand" value="35.2"/>
        <param key="name" value="St. Alphonsus St at Tremont St"/>
    </poi>
    <poi id="S32023" type="station" x="-71.10402522613185" y="42.38100143038052" color="1,0,0" layer="100">
        <param key="demand" value="35.2"/>
        <param key="name" value="30 Dane St"/>
    </poi>
    <poi id="C32064" type="station" x="-71.053419113" y="42.320072532" color="1,0,0" layer="100">
        <param key="demand" value="35.2"/>
        <param key="name" value="Sydney St at Carson St"/>
    </poi>
    <poi id="S32013" type="station" x="-71.10594004465383" y="42.39778339961249" color="1,0,0" layer="100">
        <param key="demand" value="35.2"/>
        <param key="name" value="Magoun Square at Trum Field"/>
    </poi>
    <poi id="S32042" type="station" x="-71.107833" y="42.398444" color="1,0,0" layer="100">
        <param key="demand" value="35.2"/>
        <param key="name" value="Trum Field @ Cedar St (Temp Winter Station)"/>
    </poi>
    <poi id="M32083" type="station" x="-71.086543798" y="42.369074702" color="1,0,0" layer="100">
        <param key="demand" value="35.2"/>
        <param key="name" value="John Ahern Field at Kennedy-Longfellow School"/>
    </poi>
    <poi id="C32021" type="station" x="-71.031749964" y="42.34482646" color="1,0,0" layer="100">
        <param key="demand" value="35.2"/>
        <param key="name" value="ID Building West"/>
    </poi>
    <poi id="S32004" type="station" x="-71.108569026" y="42.383641124" color="1,0,0" layer="100">
        <param key="demand" value="35.2"/>
        <param key="name" value="Conway Park - Somerville Avenue"/>
    </poi>
    <poi id="D32019" type="station" x="-71.062802076" y="42.352372289" color="1,0,0" layer="100">
        <param key="demand" value="35.2"/>
        <param key="name" value="Chinatown T Stop"/>
    </poi>
    <poi id="M32018" type="station" x="-71.118483305" y="42.373244882" color="1,0,0" layer="100">
        <param key="demand" value="35.2"/>
        <param key="name" value="Harvard Square at Mass Ave/ Dunster"/>
    </poi>
    <poi id="Z32998" type="station" x="-71.0873863200095" y="42.36412658996667" color="1,0,0" layer="100">
        <param key="demand" value="35.2"/>
        <param key="name" value="Broadway at Kittie Knox Bike Path"/>
    </poi>
    <poi id="A32017" type="station" x="-71.13275302578586" y="42.34922469338298" color="1,0,0" layer="100">
        <param key="demand" value="35.2"/>
        <param key="name" value="Commonwealth Ave at Griggs St"/>
    </poi>
    <poi id="B32008" type="station" x="-71.058426499" y="42.358255148" color="1,0,0" layer="100">
        <param key="demand" value="35.2"/>
        <param key="name" value="Boston City Hall - 28 State St"/>
    </poi>
    <poi id="D32049" type="station" x="-71.0724207387284" y="42.34954403114251" color="1,0,0" layer="100">
        <param key="demand" value="35.2"/>
        <param key="name" value="Stuart St at Berkeley St"/>
    </poi>
    <poi id="A32056" type="station" x="-71.11004680395126" y="42.33661005730433" color="1,0,0" layer="100">
        <param key="demand" value="35.2"/>
        <param key="name" value="Riverway at Brookline Ave"/>
    </poi>
    <poi id="M32062" type="station" x="-71.10026478767395" y="42.37426713524931" color="1,0,0" layer="100">
        <param key="demand" value="35.2"/>
        <param key="name" value="Inman Square at Springfield St."/>
    </poi>
    <poi id="B32002" type="station" x="-71.08798563480377" y="42.33624444796878" color="1,0,0" layer="100">
        <param key="demand" value="35.2"/>
        <param key="name" value="Ruggles T Stop - Columbus Ave at Melnea Cass Blvd"/>
    </poi>
    <poi id="M32034" type="station" x="-71.070141554" y="42.369975567" color="1,0,0" layer="100">
        <param key="demand" value="35.2"/>
        <param key="name" value="EF - North Point Park"/>
    </poi>
    <poi id="C32027" type="station" x="-71.092225" y="42.309796" color="1,0,0" layer="100">
        <param key="demand" value="35.2"/>
        <param key="name" value="Franklin Park - Seaver St at Humboldt Ave"/>
    </poi>
    <poi id="M32038" type="station" x="-71.116998434" y="42.369152784" color="1,0,0" layer="100">
        <param key="demand" value="35.2"/>
        <param key="name" value="Harvard University River Houses at DeWolfe St / Cowperthwaite St"/>
    </poi>
    <poi id="M32065" type="station" x="-71.08579014980933" y="42.36955297756508" color="1,0,0" layer="100">
        <param key="demand" value="35.2"/>
        <param key="name" value="Kennedy-Longfellow School 158 Spring St"/>
    </poi>
    <poi id="C32055" type="station" x="-71.071103692" y="42.287441015" color="1,0,0" layer="100">
        <param key="demand" value="35.2"/>
        <param key="name" value="Codman Square Library"/>
    </poi>
    <poi id="V32004" type="station" x="-71.06546759905541" y="42.39648358247693" color="1,0,0" layer="100">
        <param key="demand" value="35.2"/>
        <param key="name" value="Broadway at Lynde St"/>
    </poi>
    <poi id="C32046" type="station" x="-71.128205" y="42.286307" color="1,0,0" layer="100">
        <param key="demand" value="35.2"/>
        <param key="name" value="Roslindale Village - Washington St"/>
    </poi>
    <poi id="C32037" type="station" x="-71.07929527759552" y="42.30412792739016" color="1,0,0" layer="100">
        <param key="demand" value="35.2"/>
        <param key="name" value="Four Corners - 157 Washington St"/>
    </poi>
    <poi id="V32008" type="station" x="-71.052636027" y="42.410352468" color="1,0,0" layer="100">
        <param key="demand" value="35.2"/>
        <param key="name" value="Broadway at Maple St"/>
    </poi>
    <poi id="G32002" type="station" x="-71.067793" y="42.42386" color="1,0,0" layer="100">
        <param key="demand" value="35.2"/>
        <param key="name" value="Northern Strand at Main St"/>
    </poi>
    <poi id="A32052" type="station" x="-71.124257445" y="42.367926002" color="1,0,0" layer="100">
        <param key="demand" value="35.2"/>
        <param key="name" value="Harvard Stadium: N. Harvard St at Soldiers Field Rd"/>
    </poi>
    <poi id="M32042" type="station" x="-71.104046702" y="42.355448723" color="1,0,0" layer="100">
        <param key="demand" value="35.2"/>
        <param key="name" value="MIT Vassar St"/>
    </poi>
    <poi id="A32008" type="station" x="-71.105259657" y="42.347254753" color="1,0,0" layer="100">
        <param key="demand" value="35.2"/>
        <param key="name" value="Park Dr at Buswell St"/>
    </poi>
    <poi id="D32007" type="station" x="-71.067877889" y="42.352503061" color="1,0,0" layer="100">
        <param key="demand" value="35.2"/>
        <param key="name" value="Boylston St at Arlington St"/>
    </poi>
    <poi id="M32005" type="station" x="-71.09115600585936" y="42.3621312344991" color="1,0,0" layer="100">
        <param key="demand" value="35.2"/>
        <param key="name" value="MIT Stata Center at Vassar St / Main St"/>
    </poi>
    <poi id="S32017" type="station" x="-71.08318716287613" y="42.3876281075134" color="1,0,0" layer="100">
        <param key="demand" value="35.2"/>
        <param key="name" value="East Somerville Library (Broadway and Illinois)"/>
    </poi>
    <poi id="M32011" type="station" x="-71.102935195" y="42.365048885" color="1,0,0" layer="100">
        <param key="demand" value="35.2"/>
        <param key="name" value="Central Square at Mass Ave / Essex St"/>
    </poi>
    <poi id="D32029" type="station" x="-71.16031676530838" y="42.3489528466951" color="1,0,0" layer="100">
        <param key="demand" value="35.2"/>
        <param key="name" value="Washington St at Brock St"/>
    </poi>
    <poi id="D32054" type="station" x="-71.145646811" y="42.346976042" color="1,0,0" layer="100">
        <param key="demand" value="35.2"/>
        <param key="name" value="The Overlook at St. Gabriel's"/>
    </poi>
    <poi id="M32049" type="station" x="-71.07200495972165" y="42.37197678467975" color="1,0,0" layer="100">
        <param key="demand" value="35.2"/>
        <param key="name" value="Child Street at Brian P. Murphy Staircase"/>
    </poi>
    <poi id="K32005" type="station" x="-71.120472193" y="42.333786368" color="1,0,0" layer="100">
        <param key="demand" value="35.2"/>
        <param key="name" value="Brookline Town Hall"/>
    </poi>
    <poi id="K32017" type="station" x="-71.12490355968475" y="42.3443517550051" color="1,0,0" layer="100">
        <param key="demand" value="35.2"/>
        <param key="name" value="Harvard St and Stedman St"/>
    </poi>
    <poi id="V32016" type="station" x="-71.04731440549585" y="42.40336946230013" color="1,0,0" layer="100">
        <param key="demand" value="35.2"/>
        <param key="name" value="Chelsea St at Vine St"/>
    </poi>
    <poi id="D32011" type="station" x="-71.066128612" y="42.350756407" color="1,0,0" layer="100">
        <param key="demand" value="35.2"/>
        <param key="name" value="Stuart St at Charles St"/>
    </poi>
    <poi id="M32002" type="station" x="-71.09169" y="42.366277" color="1,0,0" layer="100">
        <param key="demand" value="35.2"/>
        <param key="name" value="One Kendall Square at Hampshire St / Portland St"/>
    </poi>
    <poi id="A32022" type="station" x="-71.068687916" y="42.379190326" color="1,0,0" layer="100">
        <param key="demand" value="35.2"/>
        <param key="name" value="Edwards Playground - Main St at Eden St"/>
    </poi>
    <poi id="C32105" type="station" x="-71.109530687" y="42.28589952" color="1,0,0" layer="100">
        <param key="demand" value="35.2"/>
        <param key="name" value="606 American Legion Hwy at Canterbury St"/>
    </poi>
    <poi id="T32006" type="station" x="-70.89183300733566" y="42.51142784358897" color="1,0,0" layer="100">
        <param key="demand" value="35.2"/>
        <param key="name" value="Lafayette at Leach St"/>
    </poi>
    <poi id="A32025" type="station" x="-71.064214945" y="42.365620375" color="1,0,0" layer="100">
        <param key="demand" value="35.2"/>
        <param key="name" value="Nashua Street at Red Auerbach Way"/>
    </poi>
    <poi id="A32006" type="station" x="-71.1182756971175" y="42.36426344063853" color="1,0,0" layer="100">
        <param key="demand" value="35.2"/>
        <param key="name" value="Soldiers Field Park - 111 Western Ave"/>
    </poi>
    <poi id="A32002" type="station" x="-71.11903488636017" y="42.35169201885973" color="1,0,0" layer="100">
        <param key="demand" value="35.2"/>
        <param key="name" value="Commonwealth Ave at Agganis Way"/>
    </poi>
    <poi id="W32002" type="station" x="-71.18573324459247" y="42.365260317694485" color="1,0,0" layer="100">
        <param key="demand" value="35.2"/>
        <param key="name" value="Watertown Sq"/>
    </poi>
    <poi id="C32015" type="station" x="-71.075354" y="42.325333" color="1,0,0" layer="100">
        <param key="demand" value="35.2"/>
        <param key="name" value="Dudley Town Common - Mt Pleasant Ave at Blue Hill Ave"/>
    </poi>
    <poi id="V32003" type="station" x="-71.055786" y="42.406872" color="1,0,0" layer="100">
        <param key="demand" value="35.2"/>
        <param key="name" value="Everett Square (Broadway at Norwood St)"/>
    </poi>
    <poi id="D32038" type="station" x="-71.063814878" y="42.374891877" color="1,0,0" layer="100">
        <param key="demand" value="35.2"/>
        <param key="name" value="Main St at Thompson Sq"/>
    </poi>
    <poi id="M32026" type="station" x="-71.104459405" y="42.370756626" color="1,0,0" layer="100">
        <param key="demand" value="35.2"/>
        <param key="name" value="359 Broadway - Broadway at Fayette Street"/>
    </poi>
    <poi id="B32020" type="station" x="-71.100694" y="42.345733" color="1,0,0" layer="100">
        <param key="demand" value="35.2"/>
        <param key="name" value="Burlington Ave at Brookline Ave"/>
    </poi>
    <poi id="D32042" type="station" x="-71.06781138111728" y="42.35182806892068" color="1,0,0" layer="100">
        <param key="demand" value="35.2"/>
        <param key="name" value="Park Plaza at Charles St S."/>
    </poi>
    <poi id="A32032" type="station" x="-71.03270328" y="42.374138832" color="1,0,0" layer="100">
        <param key="demand" value="35.2"/>
        <param key="name" value="Bremen St at Marion St"/>
    </poi>
    <poi id="M32068" type="station" x="-71.124487042" y="42.382961988" color="1,0,0" layer="100">
        <param key="demand" value="35.2"/>
        <param key="name" value="Graham and Parks School – Linnaean St at Walker St"/>
    </poi>
    <poi id="H32003" type="station" x="-71.03857017704286" y="42.39022671103383" color="1,0,0" layer="100">
        <param key="demand" value="35.2"/>
        <param key="name" value="Chelsea Square"/>
    </poi>
    <poi id="C32017" type="station" x="-71.03877" y="42.335741" color="1,0,0" layer="100">
        <param key="demand" value="35.2"/>
        <param key="name" value="South Boston Library - 646 E Broadway"/>
    </poi>
    <poi id="C32060" type="station" x="-71.07421449387857" y="42.34254913737952" color="1,0,0" layer="100">
        <param key="demand" value="35.2"/>
        <param key="name" value="Tremont St at W. Dedham St"/>
    </poi>
    <poi id="M32051" type="station" x="-71.143478951426" y="42.38267827521855" color="1,0,0" layer="100">
        <param key="demand" value="35.2"/>
        <param key="name" value="Fresh Pond Reservation"/>
    </poi>
    <poi id="M32055" type="station" x="-71.09522221614498" y="42.36599432867437" color="1,0,0" layer="100">
        <param key="demand" value="35.2"/>
        <param key="name" value="Harvard St at Greene-Rose Heritage Park"/>
    </poi>
    <poi id="C32089" type="station" x="-71.115944028" y="42.296115041" color="1,0,0" layer="100">
        <param key="demand" value="35.2"/>
        <param key="name" value="Hyde Park Ave at Walk Hill St"/>
    </poi>
    <poi id="S32036" type="station" x="-71.097713709" y="42.391664505" color="1,0,0" layer="100">
        <param key="demand" value="35.2"/>
        <param key="name" value="Somerville City Hall Annex"/>
    </poi>
    <poi id="S32034" type="station" x="-71.10347712" y="42.379321694" color="1,0,0" layer="100">
        <param key="demand" value="35.2"/>
        <param key="name" value="Perry Park"/>
    </poi>
    <poi id="S32011" type="station" x="-71.12590793383788" y="42.40087950159558" color="1,0,0" layer="100">
        <param key="demand" value="35.2"/>
        <param key="name" value="Teele Square"/>
    </poi>
    <poi id="M32069" type="station" x="-71.15058331757609" y="42.39239749145834" color="1,0,0" layer="100">
        <param key="demand" value="35.2"/>
        <param key="name" value="Smith Pl at Wilson Rd"/>
    </poi>
    <poi id="M32063" type="station" x="-71.09930185605663" y="42.36860524248197" color="1,0,0" layer="100">
        <param key="demand" value="35.2"/>
        <param key="name" value="Sennott Park Broadway at Norfolk Street"/>
    </poi>
    <poi id="M32024" type="station" x="-71.125107" y="42.380287" color="1,0,0" layer="100">
        <param key="demand" value="35.2"/>
        <param key="name" value="Harvard University Radcliffe Quadrangle at Shepard St / Garden St"/>
    </poi>
    <poi id="S32019" type="station" x="-71.12011306006025" y="42.396386809455" color="1,0,0" layer="100">
        <param key="demand" value="35.2"/>
        <param key="name" value="Grove St at Community Path"/>
    </poi>
    <poi id="T32017" type="station" x="-70.90166732668875" y="42.48628784971989" color="1,0,0" layer="100">
        <param key="demand" value="35.2"/>
        <param key="name" value="Vinnin Square"/>
    </poi>
    <poi id="S32050" type="station" x="-71.09117388747109" y="42.375447604963405" color="1,0,0" layer="100">
        <param key="demand" value="35.2"/>
        <param key="name" value="Boynton Yards at 101 South Street"/>
    </poi>
    <poi id="T32009" type="station" x="-70.891444" y="42.503332" color="1,0,0" layer="100">
        <param key="demand" value="35.2"/>
        <param key="name" value="Salem State University - North Campus"/>
    </poi>
    <poi id="D32016" type="station" x="-71.071290374" y="42.360728383" color="1,0,0" layer="100">
        <param key="demand" value="35.2"/>
        <param key="name" value="Charles Circle - Charles St at Cambridge St"/>
    </poi>
    <poi id="V32013" type="station" x="-71.06041654944418" y="42.40616124132245" color="1,0,0" layer="100">
        <param key="demand" value="35.2"/>
        <param key="name" value="Kearins Playground"/>
    </poi>
    <poi id="M32061" type="station" x="-71.09670273977825" y="42.36135837662249" color="1,0,0" layer="100">
        <param key="demand" value="35.2"/>
        <param key="name" value="Mass Ave at Albany St"/>
    </poi>
    <poi id="A32035" type="station" x="-71.006044388" y="42.386827707" color="1,0,0" layer="100">
        <param key="demand" value="35.2"/>
        <param key="name" value="Orient Heights T Stop - Bennington St at Saratoga St"/>
    </poi>
    <poi id="M32014" type="station" x="-71.114214" y="42.366621" color="1,0,0" layer="100">
        <param key="demand" value="35.2"/>
        <param key="name" value="Harvard University Housing - 115 Putnam Ave at Peabody Terrace"/>
    </poi>
    <poi id="D32006" type="station" x="-71.050877" y="42.363871" color="1,0,0" layer="100">
        <param key="demand" value="35.2"/>
        <param key="name" value="Lewis Wharf at Atlantic Ave"/>
    </poi>
    <poi id="M32030" type="station" x="-71.10809952020645" y="42.36178043960605" color="1,0,0" layer="100">
        <param key="demand" value="35.2"/>
        <param key="name" value="Dana Park"/>
    </poi>
    <poi id="M32031" type="station" x="-71.132788" y="42.388966" color="1,0,0" layer="100">
        <param key="demand" value="35.2"/>
        <param key="name" value="Danehy Park"/>
    </poi>
    <poi id="M32029" type="station" x="-71.119084" y="42.387995" color="1,0,0" layer="100">
        <param key="demand" value="35.2"/>
        <param key="name" value="Porter Square Station"/>
    </poi>
    <poi id="R32002" type="station" x="-70.99272429943085" y="42.40715655698643" color="1,0,0" layer="100">
        <param key="demand" value="35.2"/>
        <param key="name" value="Orr Sq (Shirley Ave)"/>
    </poi>
    <poi id="M32067" type="station" x="-71.089989901" y="42.371945739" color="1,0,0" layer="100">
        <param key="demand" value="35.2"/>
        <param key="name" value="Berkshire Street at Cambridge Street"/>
    </poi>
    <poi id="M32023" type="station" x="-71.116919279" y="42.377991199" color="1,0,0" layer="100">
        <param key="demand" value="35.2"/>
        <param key="name" value="Harvard University / SEAS Cruft-Pierce Halls at 29 Oxford St"/>
    </poi>
    <poi id="M32087" type="station" x="-71.11966431146357" y="42.37433925370521" color="1,0,0" layer="100">
        <param key="demand" value="35.2"/>
        <param key="name" value="Church St"/>
    </poi>
    <poi id="M32075" type="station" x="-71.139056683" y="42.389552355" color="1,0,0" layer="100">
        <param key="demand" value="35.2"/>
        <param key="name" value="Danehy Park at New Street"/>
    </poi>
    <poi id="C32033" type="station" x="-71.0539" y="42.3106" color="1,0,0" layer="100">
        <param key="demand" value="35.2"/>
        <param key="name" value="Savin Hill T Stop - S Sydney St at Bay St"/>
    </poi>
    <poi id="A32058" type="station" x="-71.059624" y="42.359322" color="1,0,0" layer="100">
        <param key="demand" value="35.2"/>
        <param key="name" value="Tremont St. at Court St."/>
    </poi>
    <poi id="A32009" type="station" x="-71.076742649" y="42.341329217" color="1,0,0" layer="100">
        <param key="demand" value="35.2"/>
        <param key="name" value="South End Library - Tremont St at W Newton St"/>
    </poi>
    <poi id="S32053" type="station" x="-71.085974813" y="42.377710819" color="1,0,0" layer="100">
        <param key="demand" value="35.2"/>
        <param key="name" value="Chestnut St at Poplar St"/>
    </poi>
    <poi id="D32034" type="station" x="-71.13997217276847" y="42.348358628170445" color="1,0,0" layer="100">
        <param key="demand" value="35.2"/>
        <param key="name" value="Commonwealth Ave at Kelton St"/>
    </poi>
    <poi id="D32017" type="station" x="-71.07286870479584" y="42.35553628489709" color="1,0,0" layer="100">
        <param key="demand" value="35.2"/>
        <param key="name" value="Mugar Way at Beacon St"/>
    </poi>
    <poi id="C32035" type="station" x="-71.062179685" y="42.34372139" color="1,0,0" layer="100">
        <param key="demand" value="35.2"/>
        <param key="name" value="Troy Boston"/>
    </poi>
    <poi id="D32014" type="station" x="-71.063348" y="42.354979" color="1,0,0" layer="100">
        <param key="demand" value="35.2"/>
        <param key="name" value="Tremont St at West St"/>
    </poi>
    <poi id="M32017" type="station" x="-71.12098601080106" y="42.373328798874056" color="1,0,0" layer="100">
        <param key="demand" value="35.2"/>
        <param key="name" value="Harvard Square at Brattle St / Eliot St"/>
    </poi>
    <poi id="L32005" type="station" x="-71.14456963094199" y="42.40016804853787" color="1,0,0" layer="100">
        <param key="demand" value="35.2"/>
        <param key="name" value="Thorndike Field at Minuteman Bikeway"/>
    </poi>
    <poi id="T32012" type="station" x="-70.89684" y="42.523994" color="1,0,0" layer="100">
        <param key="demand" value="35.2"/>
        <param key="name" value="Salem MBTA - Lower Level"/>
    </poi>
    <poi id="K32003" type="station" x="-71.11626680949485" y="42.33274392304887" color="1,0,0" layer="100">
        <param key="demand" value="35.2"/>
        <param key="name" value="Brookline Village - Station Street at MBTA"/>
    </poi>
    <poi id="C32005" type="station" x="-71.07903778553009" y="42.3350989929096" color="1,0,0" layer="100">
        <param key="demand" value="35.2"/>
        <param key="name" value="Washington St at Lenox St"/>
    </poi>
    <poi id="B32018" type="station" x="-71.08678414955648" y="42.34740620525209" color="1,0,0" layer="100">
        <param key="demand" value="35.2"/>
        <param key="name" value="Boylston St at Massachusetts Ave"/>
    </poi>
    <poi id="C32032" type="station" x="-71.03764" y="42.3481" color="1,0,0" layer="100">
        <param key="demand" value="35.2"/>
        <param key="name" value="Congress St at Northern Ave"/>
    </poi>
    <poi id="C32085" type="station" x="-71.153460383" y="42.286265135" color="1,0,0" layer="100">
        <param key="demand" value="35.2"/>
        <param key="name" value="Centre St at W. Roxbury Post Office"/>
    </poi>
    <poi id="A32051" type="station" x="-71.027786732" y="42.379206181" color="1,0,0" layer="100">
        <param key="demand" value="35.2"/>
        <param key="name" value="Day Sq"/>
    </poi>
    <poi id="T32007" type="station" x="-70.89478075504303" y="42.50182398896298" color="1,0,0" layer="100">
        <param key="demand" value="35.2"/>
        <param key="name" value="Salem State University - Bike Path at Loring Ave"/>
    </poi>
    <poi id="C32103" type="station" x="-71.080286" y="42.278747" color="1,0,0" layer="100">
        <param key="demand" value="35.2"/>
        <param key="name" value="Morton St at Gallivan Blvd"/>
    </poi>
    <poi id="S32018" type="station" x="-71.07746601104736" y="42.39223284004628" color="1,0,0" layer="100">
        <param key="demand" value="35.2"/>
        <param key="name" value="Assembly Square T"/>
    </poi>
    <poi id="M32032" type="station" x="-71.08216792345047" y="42.36356015842989" color="1,0,0" layer="100">
        <param key="demand" value="35.2"/>
        <param key="name" value="Kendall Street"/>
    </poi>
    <poi id="L32002" type="station" x="-71.14906518727366" y="42.40935395518158" color="1,0,0" layer="100">
        <param key="demand" value="35.2"/>
        <param key="name" value="Linwood St at Minuteman Bikeway"/>
    </poi>
    <poi id="R32007" type="station" x="-71.008942" y="42.408088" color="1,0,0" layer="100">
        <param key="demand" value="35.2"/>
        <param key="name" value="Revere Public Library"/>
    </poi>
    <poi id="B32059" type="station" x="-71.09218861916816" y="42.33286288486264" color="1,0,0" layer="100">
        <param key="demand" value="35.2"/>
        <param key="name" value="Whittier St Health Center"/>
    </poi>
    <poi id="E32011" type="station" x="-71.096403956" y="42.319332957" color="1,0,0" layer="100">
        <param key="demand" value="35.2"/>
        <param key="name" value="The Dimock Center"/>
    </poi>
    <poi id="B32034" type="station" x="-71.09732501226972" y="42.34465062887831" color="1,0,0" layer="100">
        <param key="demand" value="35.2"/>
        <param key="name" value="Boylston St at Jersey St"/>
    </poi>
    <poi id="Z32999" type="station" x="-71.09746182817616" y="42.269988465946064" color="1,0,0" layer="100">
        <param key="demand" value="35.2"/>
        <param key="name" value="Cummins Highway at Blue Hill Ave T Stop"/>
    </poi>
    <poi id="E32001" type="station" x="-71.11543" y="42.309054" color="1,0,0" layer="100">
        <param key="demand" value="35.2"/>
        <param key="name" value="Curtis Hall - South St at Centre St"/>
    </poi>
    <poi id="K32002" type="station" x="-71.139063597" y="42.338193417" color="1,0,0" layer="100">
        <param key="demand" value="35.2"/>
        <param key="name" value="Beacon St at Tappan St"/>
    </poi>
    <poi id="A32036" type="station" x="-71.0410200806291" y="42.373312125824704" color="1,0,0" layer="100">
        <param key="demand" value="35.2"/>
        <param key="name" value="Boston East - 126 Border St"/>
    </poi>
    <poi id="B32029" type="station" x="-71.072902679" y="42.309596658" color="1,0,0" layer="100">
        <param key="demand" value="35.2"/>
        <param key="name" value="Columbia Rd at Ceylon St"/>
    </poi>
    <poi id="M32009" type="station" x="-71.10057324171066" y="42.36346469304347" color="1,0,0" layer="100">
        <param key="demand" value="35.2"/>
        <param key="name" value="Lafayette Square at Mass Ave / Main St / Columbia St"/>
    </poi>
    <poi id="S32006" type="station" x="-71.123024" y="42.396969" color="1,0,0" layer="100">
        <param key="demand" value="35.2"/>
        <param key="name" value="Davis Square"/>
    </poi>
    <poi id="V32011" type="station" x="-71.06373842814719" y="42.39836059620832" color="1,0,0" layer="100">
        <param key="demand" value="35.2"/>
        <param key="name" value="Broadway at Beacham St"/>
    </poi>
    <poi id="D32015" type="station" x="-71.059367" y="42.351356" color="1,0,0" layer="100">
        <param key="demand" value="35.2"/>
        <param key="name" value="Chinatown Gate Plaza"/>
    </poi>
    <poi id="C32048" type="station" x="-71.12119538714069" y="42.29266592872725" color="1,0,0" layer="100">
        <param key="demand" value="35.2"/>
        <param key="name" value="Archdale Rd at Washington St"/>
    </poi>
    <poi id="W32005" type="station" x="-71.18751436471939" y="42.36759307632294" color="1,0,0" layer="100">
        <param key="demand" value="35.2"/>
        <param key="name" value="Watertown City Hall"/>
    </poi>
    <poi id="D32035" type="station" x="-71.13022770741735" y="42.34953016890375" color="1,0,0" layer="100">
        <param key="demand" value="35.2"/>
        <param key="name" value="Harvard Ave at Brainerd Rd"/>
    </poi>
    <poi id="D32031" type="station" x="-71.166263819" y="42.350497365" color="1,0,0" layer="100">
        <param key="demand" value="35.2"/>
        <param key="name" value="Oak Square - 615 Washington St"/>
    </poi>
    <poi id="B32028" type="station" x="-71.081306696" y="42.307773352" color="1,0,0" layer="100">
        <param key="demand" value="35.2"/>
        <param key="name" value="Grove Hall Library - 41 Geneva Ave"/>
    </poi>
    <poi id="E32016" type="station" x="-71.123798" y="42.351911" color="1,0,0" layer="100">
        <param key="demand" value="35.2"/>
        <param key="name" value="Commonwealth Ave at Naples Rd"/>
    </poi>
    <poi id="C32051" type="station" x="-71.02495" y="42.3334" color="1,0,0" layer="100">
        <param key="demand" value="35.2"/>
        <param key="name" value="Farragut Rd at E. 6th St"/>
    </poi>
    <poi id="F32008" type="station" x="-71.096565127" y="42.418046832" color="1,0,0" layer="100">
        <param key="demand" value="35.2"/>
        <param key="name" value="Logan Park"/>
    </poi>
    <poi id="C32028" type="station" x="-71.044024" y="42.344792" color="1,0,0" layer="100">
        <param key="demand" value="35.2"/>
        <param key="name" value="The Lawn on D"/>
    </poi>
    <poi id="A32005" type="station" x="-71.137776375" y="42.361482739" color="1,0,0" layer="100">
        <param key="demand" value="35.2"/>
        <param key="name" value="Brighton Mills - 370 Western Ave"/>
    </poi>
    <poi id="K32015" type="station" x="-71.115234017" y="42.344000697" color="1,0,0" layer="100">