<additional>
    <poi id="demand_D32016" type="high_demand" x="-71.071290374" y="42.360728383" color="1,0,0" width="10" height="10" layer="101"/>
    <poi id="demand_M32042" type="high_demand" x="-71.104046702" y="42.355448723" color="1,0,0" width="10" height="10" layer="101"/>
    <poi id="demand_A32010" type="high_demand" x="-71.055547" y="42.352175" color="1,0,0" width="10" height="10" layer="101"/>
    <poi id="demand_D32022" type="high_demand" x="-71.06446668505669" y="42.36590788445084" color="1,0,0" width="10" height="10" layer="101"/>
    <poi id="demand_A32025" type="high_demand" x="-71.064214945" y="42.365620375" color="1,0,0" width="10" height="10" layer="101"/>
    <poi id="demand_M32041" type="high_demand" x="-71.101332664" y="42.359547138" color="1,0,0" width="10" height="10" layer="101"/>
    <poi id="demand_C32008" type="high_demand" x="-71.082254887" y="42.348793507" color="1,0,0" width="10" height="10" layer="101"/>
    <poi id="demand_M32077" type="high_demand" x="-71.076198" y="42.371141" color="1,0,0" width="10" height="10" layer="101"/>
    <poi id="demand_C32006" type="high_demand" x="-71.07404083013535" y="42.338514601786" color="1,0,0" width="10" height="10" layer="101"/>
    <poi id="demand_M32012" type="high_demand" x="-71.105495" y="42.366426" color="1,0,0" width="10" height="10" layer="101"/>
    <poi id="demand_M32065" type="high_demand" x="-71.08579014980933" y="42.36955297756508" color="1,0,0" width="10" height="10" layer="101"/>
    <poi id="demand_C32003" type="high_demand" x="-71.07657015323639" y="42.34807412317439" color="1,0,0" width="10" height="10" layer="101"/>
    <poi id="demand_M32063" type="high_demand" x="-71.09930185605663" y="42.36860524248197" color="1,0,0" width="10" height="10" layer="101"/>
    <poi id="demand_M32081" type="high_demand" x="-71.08634233665725" y="42.373079797934935" color="1,0,0" width="10" height="10" layer="101"/>
    <poi id="demand_M32071" type="high_demand" x="-71.08551858007559" y="42.36085937353302" color="1,0,0" width="10" height="10" layer="101"/>
    <poi id="demand_D32010" type="high_demand" x="-71.056067" y="42.362811" color="1,0,0" width="10" height="10" layer="101"/>
    <poi id="demand_C32029" type="high_demand" x="-71.0514432" y="42.3391085" color="1,0,0" width="10" height="10" layer="101"/>
    <poi id="demand_S32004" type="high_demand" x="-71.108569026" y="42.383641124" color="1,0,0" width="10" height="10" layer="101"/>
    <poi id="demand_M32062" type="high_demand" x="-71.10026478767395" y="42.37426713524931" color="1,0,0" width="10" height="10" layer="101"/>
    <poi id="demand_B32005" type="high_demand" x="-71.08582377433777" y="42.3436658245146" color="1,0,0" width="10" height="10" layer="101"/>
    <poi id="demand_M32052" type="high_demand" x="-71.09759867191315" y="42.37119727759414" color="1,0,0" width="10" height="10" layer="101"/>
    <poi id="demand_S32046" type="high_demand" x="-71.09455049" y="42.38661015" color="1,0,0" width="10" height="10" layer="101"/>
    <poi id="demand_M32026" type="high_demand" x="-71.104459405" y="42.370756626" color="1,0,0" width="10" height="10" layer="101"/>
    <poi id="demand_M32006" type="high_demand" x="-71.093198" y="42.3581" color="1,0,0" width="10" height="10" layer="101"/>
    <poi id="demand_D32024" type="high_demand" x="-71.069804668" y="42.356063724" color="1,0,0" width="10" height="10" layer="101"/>
    <poi id="demand_M32076" type="high_demand" x="-71.1084133386612" y="42.35766247889882" color="1,0,0" width="10" height="10" layer="101"/>
    <poi id="demand_B32013" type="high_demand" x="-71.10407917767589" y="42.33462893055976" color="1,0,0" width="10" height="10" layer="101"/>
    <poi id="demand_M32030" type="high_demand" x="-71.10809952020645" y="42.36178043960605" color="1,0,0" width="10" height="10" layer="101"/>
    <poi id="demand_C32002" type="high_demand" x="-71.07306711393903" y="42.33639915372498" color="1,0,0" width="10" height="10" layer="101"/>
    <poi id="demand_C32017" type="high_demand" x="-71.03877" y="42.335741" color="1,0,0" width="10" height="10" layer="101"/>
    <poi id="demand_M32061" type="high_demand" x="-71.09670273977825" y="42.36135837662249" color="1,0,0" width="10" height="10" layer="101"/>
    <poi id="demand_S32034" type="high_demand" x="-71.10347712" y="42.379321694" color="1,0,0" width="10" height="10" layer="101"/>
    <poi id="demand_A32001" type="high_demand" x="-71.137313" y="42.353334" color="1,0,0" width="10" height="10" layer="101"/>
    <poi id="demand_M32007" type="high_demand" x="-71.094445" y="42.372969" color="1,0,0" width="10" height="10" layer="101"/>
    <poi id="demand_C32060" type="high_demand" x="-71.07421449387857" y="42.34254913737952" color="1,0,0" width="10" height="10" layer="101"/>
    <poi id="demand_B32037" type="high_demand" x="-71.09728209692548" y="42.34924376955301" color="1,0,0" width="10" height="10" layer="101"/>
    <poi id="demand_M32055" type="high_demand" x="-71.09522221614498" y="42.36599432867437" color="1,0,0" width="10" height="10" layer="101"/>
    <poi id="demand_K32017" type="high_demand" x="-71.12490355968475" y="42.3443517550051" color="1,0,0" width="10" height="10" layer="101"/>
    <poi id="demand_D32039" type="high_demand" x="-71.05481199938367" y="42.374124549426526" color="1,0,0" width="10" height="10" layer="101"/>
    <poi id="demand_M32067" type="high_demand" x="-71.089989901" y="42.371945739" color="1,0,0" width="10" height="10" layer="101"/>
    <poi id="demand_D32021" type="high_demand" x="-71.060292" y="42.371848" color="1,0,0" width="10" height="10" layer="101"/>
    <poi id="demand_M32011" type="high_demand" x="-71.102935195" y="42.365048885" color="1,0,0" width="10" height="10" layer="101"/>
    <poi id="demand_D32035" type="high_demand" x="-71.13022770741735" y="42.34953016890375" color="1,0,0" width="10" height="10" layer="101"/>
    <poi id="demand_M32047" type="high_demand" x="-71.10393404960632" y="42.35775309465199" color="1,0,0" width="10" height="10" layer="101"/>
    <poi id="demand_A32023" type="high_demand" x="-71.06905996799469" y="42.37408991426522" color="1,0,0" width="10" height="10" layer="101"/>
    <poi id="demand_M32002" type="high_demand" x="-71.09169" y="42.366277" color="1,0,0" width="10" height="10" layer="101"/>
    <poi id="demand_B32015" type="high_demand" x="-71.10235286881107" y="42.34369055719748" color="1,0,0" width="10" height="10" layer="101"/>
    <poi id="demand_S32003" type="high_demand" x="-71.10707223415375" y="42.37875351212593" color="1,0,0" width="10" height="10" layer="101"/>
    <poi id="demand_M32014" type="high_demand" x="-71.114214" y="42.366621" color="1,0,0" width="10" height="10" layer="101"/>
    <poi id="demand_M32044" type="high_demand" x="-71.13426981498378" y="42.381650612901176" color="1,0,0" width="10" height="10" layer="101"/>
    <poi id="demand_C32063" type="high_demand" x="-71.08336953450817" y="42.34135615767354" color="1,0,0" width="10" height="10" layer="101"/>
    <poi id="demand_M32053" type="high_demand" x="-71.080272794" y="42.361697435" color="1,0,0" width="10" height="10" layer="101"/>
    <poi id="demand_M32024" type="high_demand" x="-71.125107" y="42.380287" color="1,0,0" width="10" height="10" layer="101"/>
    <poi id="demand_A32002" type="high_demand" x="-71.11903488636017" y="42.35169201885973" color="1,0,0" width="10" height="10" layer="101"/>
    <poi id="demand_C32004" type="high_demand" x="-71.0816197" y="42.340835" color="1,0,0" width="10" height="10" layer="101"/>
    <poi id="demand_A32009" type="high_demand" x="-71.076742649" y="42.341329217" color="1,0,0" width="10" height="10" layer="101"/>
    <poi id="demand_M32072" type="high_demand" x="-71.08974037706501" y="42.363003781560096" color="1,0,0" width="10" height="10" layer="101"/>
    <poi id="demand_D32006" type="high_demand" x="-71.050877" y="42.363871" color="1,0,0" width="10" height="10" layer="101"/>
    <poi id="demand_C32000" type="high_demand" x="-71.069616" y="42.345392" color="1,0,0" width="10" height="10" layer="101"/>
    <poi id="demand_M32022" type="high_demand" x="-71.1138716340065" y="42.357218503176526" color="1,0,0" width="10" height="10" layer="101"/>
    <poi id="demand_S32011" type="high_demand" x="-71.12590793383788" y="42.40087950159558" color="1,0,0" width="10" height="10" layer="101"/>
    <poi id="demand_C32093" type="high_demand" x="-71.06975" y="42.339194" color="1,0,0" width="10" height="10" layer="101"/>
    <poi id="demand_E32005" type="high_demand" x="-71.107341" y="42.310579" color="1,0,0" width="10" height="10" layer="101"/>
    <poi id="demand_D32038" type="high_demand" x="-71.063814878" y="42.374891877" color="1,0,0" width="10" height="10" layer="101"/>
    <poi id="demand_B32032" type="high_demand" x="-71.05979576244862" y="42.3598253979878" color="1,0,0" width="10" height="10" layer="101"/>
    <poi id="demand_M32056" type="high_demand" x="-71.12260755160605" y="42.39120971915856" color="1,0,0" width="10" height="10" layer="101"/>
    <poi id="demand_M32050" type="high_demand" x="-71.11305356025696" y="42.37250864997261" color="1,0,0" width="10" height="10" layer="101"/>
    <poi id="demand_M32073" type="high_demand" x="-71.10998779535294" y="42.36895180540729" color="1,0,0" width="10" height="10" layer="101"/>
    <poi id="demand_D32058" type="high_demand" x="-71.1296752" y="42.3528376" color="1,0,0" width="10" height="10" layer="101"/>
    <poi id="demand_M32005" type="high_demand" x="-71.09115600585936" y="42.3621312344991" color="1,0,0" width="10" height="10" layer="101"/>
    <poi id="demand_D32020" type="high_demand" x="-71.064608" y="42.375603" color="1,0,0" width="10" height="10" layer="101"/>
    <poi id="demand_S32022" type="high_demand" x="-71.11133694648743" y="42.39407223665884" color="1,0,0" width="10" height="10" layer="101"/>
    <poi id="demand_D32049" type="high_demand" x="-71.0724207387284" y="42.34954403114251" color="1,0,0" width="10" height="10" layer="101"/>
    <poi id="demand_C32034" type="high_demand" x="-71.04569256305693" y="42.351586001198456" color="1,0,0" width="10" height="10" layer="101"/>
    <poi id="demand_D32019" type="high_demand" x="-71.062802076" y="42.352372289" color="1,0,0" width="10" height="10" layer="101"/>
    <poi id="demand_S32035" type="high_demand" x="-71.108848333" y="42.380514264" color="1,0,0" width="10" height="10" layer="101"/>
    <poi id="demand_C32056" type="high_demand" x="-71.08169049924982" y="42.338431795290944" color="1,0,0" width="10" height="10" layer="101"/>
    <poi id="demand_B32008" type="high_demand" x="-71.058426499" y="42.358255148" color="1,0,0" width="10" height="10" layer="101"/>
    <poi id="demand_M32085" type="high_demand" x="-71.10044184048091" y="42.36356498989399" color="1,0,0" width="10" height="10" layer="101"/>
</additional>
