<routes>
    <vType id="bike" accel="0.8" decel="1.5" sigma="0.5" length="1.6" minGap="0.5" maxSpeed="5.5"/>
    <trip id="D8F970253FDD5495" type="bike" depart="5.00" fromXY="-71.104030371,42.380958557" toXY="-71.1031,42.36507" />
    <trip id="DAE25189068746BA" type="bike" depart="6.00" fromXY="-71.10878612855231,42.38032335045416" toXY="-71.118579,42.373268" />
    <trip id="D0B154604FCAEEF0" type="bike" depart="8.00" fromXY="-71.048010588,42.35305953" toXY="-71.057629,42.35892" />
    <trip id="2EC9898C048308D7" type="bike" depart="22.00" fromXY="-71.103866696,42.349990845" toXY="-71.0794677917329,42.349589423682445" />
    <trip id="D88E68B699F24E07" type="bike" depart="25.00" fromXY="-71.0514432,42.3391085" toXY="-71.053181,42.354659" />
    <trip id="0AFBAB944C7667EB" type="bike" depart="27.00" fromXY="-71.166370511,42.350573421" toXY="-71.137313,42.353334" />
    <trip id="00F19E9D706D52C5" type="bike" depart="29.00" fromXY="-71.12070563810447,42.34012242696642" toXY="-71.11004680395126,42.33661005730433" />
    <trip id="22FB0825898CF509" type="bike" depart="42.00" fromXY="-71.07329249382019,42.3511419825475" toXY="-71.053181,42.354659" />
    <trip id="4569512ED71B37B8" type="bike" depart="43.00" fromXY="-71.058318377,42.35843122" toXY="-71.062679,42.352409" />
    <trip id="5C057D11EE82FA63" type="bike" depart="45.00" fromXY="-71.016142964,42.383581281" toXY="-71.03276252757496,42.37410622047334" />
    <trip id="361ACC9394C6B359" type="bike" depart="47.00" fromXY="-71.10402522613185,42.38100143038052" toXY="-71.114025,42.376369" />
    <trip id="825286BB8AC98192" type="bike" depart="51.00" fromXY="-71.076638,42.370982" toXY="-71.07782810926437,42.35096144421219" />
    <trip id="341BFF15334B8C89" type="bike" depart="54.00" fromXY="-71.123286963,42.39718473" toXY="-71.09651505947113,42.40721644126376" />
    <trip id="B447FBE098802857" type="bike" depart="77.00" fromXY="-71.142651439,42.395716429" toXY="-71.076198,42.371141" />
    <trip id="FB58D8E29A6441E1" type="bike" depart="86.00" fromXY="-71.11089169979095,42.32760387040573" toXY="-71.1001680795016,42.34734473177431" />
    <trip id="305DED8F91F47E98" type="bike" depart="87.00" fromXY="-71.091113925,42.36216712" toXY="-71.08236908912659,42.348803822833936" />
    <trip id="52AAB8D9D4E8D9DA" type="bike" depart="87.00" fromXY="-71.0801375997653,42.36550728505653" toXY="-71.0885418,42.3664204" />
    <trip id="5C8486BBEFE38918" type="bike" depart="94.00" fromXY="-71.064608,42.375603" toXY="-71.06528744101524,42.36125721646537" />
    <trip id="157F2C7072C422E1" type="bike" depart="94.00" fromXY="-71.0724207387284,42.34954403114251" toXY="-71.069849,42.356052" />
    <trip id="21A0BDE4EB3A0E60" type="bike" depart="95.00" fromXY="-71.10809952020645,42.36178043960605" toXY="-71.0885418,42.3664204" />
    <trip id="CF063E6CDBF0CAC7" type="bike" depart="96.00" fromXY="-71.13421171095978,42.33985827126298" toXY="-71.0915669,42.3629016" />
    <trip id="3062D506CC8B5E0A" type="bike" depart="101.00" fromXY="-71.07286870479584,42.35553628489709" toXY="-71.07421449387857,42.34254913737952" />
    <trip id="A7B7A7AC299D0259" type="bike" depart="102.00" fromXY="-71.071151257,42.287385821" toXY="-71.055547,42.352175" />
    <trip id="2AB4AF0AE0A0EDA8" type="bike" depart="103.00" fromXY="-71.08318716287613,42.3876281075134" toXY="-71.07514854529654,42.38445225635844" />
    <trip id="6E760B66E61BE368" type="bike" depart="104.00" fromXY="-71.10061883926392,42.34011512249236" toXY="-71.13421171095978,42.33985827126298" />
    <trip id="5BFC226F833AF986" type="bike" depart="106.00" fromXY="-71.10809952020645,42.36178043960605" toXY="-71.118579,42.373268" />
    <trip id="E1776DB957DC25A6" type="bike" depart="106.00" fromXY="-71.04622899561036,42.33595897943309" toXY="-71.062679,42.352409" />
    <trip id="D75AFE34E0B1EE14" type="bike" depart="107.00" fromXY="-71.08579014980933,42.36955297756508" toXY="-71.08822,42.3625" />
    <trip id="9E8FFFE61852D138" type="bike" depart="111.00" fromXY="-71.10101378,42.345707178" toXY="-71.07118962337152,42.36079296858265" />
    <trip id="D6512338DEAEE300" type="bike" depart="116.00" fromXY="-71.0514432,42.3391085" toXY="-71.04569256305693,42.351586001198456" />
    <trip id="2B6BF7CC11AB3A6A" type="bike" depart="119.00" fromXY="-71.064263,42.365673" toXY="-71.059624,42.359322" />
    <trip id="B458E8849D8207BB" type="bike" depart="126.00" fromXY="-71.06446668505669,42.36590788445084" toXY="-71.08236908912659,42.348803822833936" />
    <trip id="94EDE17F6F7DA7F3" type="bike" depart="128.00" fromXY="-71.08169049924982,42.338431795290944" toXY="-71.08798563480377,42.33624444796878" />
    <trip id="2CE67AB2924202B7" type="bike" depart="130.00" fromXY="-71.15027189254761,42.34894857235593" toXY="-71.137313,42.353334" />
    <trip id="E11B8E31D9F6D51C" type="bike" depart="137.00" fromXY="-71.064263,42.365673" toXY="-71.111075,42.373379" />
    <trip id="40CA17D2156015E2" type="bike" depart="140.00" fromXY="-71.123798,42.351911" toXY="-71.10129475593567,42.35957320109044" />
    <trip id="639855E4CB35B57A" type="bike" depart="140.00" fromXY="-71.064263,42.365673" toXY="-71.05737626552582,42.34404051001636" />
    <trip id="23CD6DDD575FF617" type="bike" depart="141.00" fromXY="-71.07421449387857,42.34254913737952" toXY="-71.06528744101524,42.36125721646537" />
    <trip id="CAF42D0B570EBF6A" type="bike" depart="144.00" fromXY="-71.09522221614498,42.36599432867437" toXY="-71.094445,42.372969" />
    <trip id="C6F196FB0B287FF3" type="bike" depart="152.00" fromXY="-71.057629,42.35892" toXY="-71.07679277658461,42.367074071490926" />
    <trip id="59702A586678F649" type="bike" depart="158.00" fromXY="-71.12070563810447,42.34012242696642" toXY="-71.09670273977825,42.36135837662249" />
    <trip id="3B5D7A2CFA9B8553" type="bike" depart="160.00" fromXY="-71.04622899561036,42.33595897943309" toXY="-71.05043940246105,42.36044135623124" />
    <trip id="1A92B693ABECC587" type="bike" depart="161.00" fromXY="-71.085954,42.348717" toXY="-71.06528744101524,42.36125721646537" />
    <trip id="659A4A085CBB34FC" type="bike" depart="169.00" fromXY="-71.13776206970215,42.3615457081725" toXY="-71.069957,42.369885" />
    <trip id="5F8778A530192BE3" type="bike" depart="171.00" fromXY="-71.055547,42.352175" toXY="-71.09522221614498,42.36599432867437" />
    <trip id="C87FFF9EB91B2C5D" type="bike" depart="171.00" fromXY="-71.100987792,42.345755458" toXY="-71.03877,42.335741" />
    <trip id="0CC7819288D820DF" type="bike" depart="174.00" fromXY="-71.073052883,42.33634758" toXY="-71.067052,42.342958" />
    <trip id="58AD745915B13D1A" type="bike" depart="177.00" fromXY="-71.144098043,42.390691161" toXY="-71.09115600585936,42.3621312344991" />
    <trip id="4A5AD7A8368E0DEE" type="bike" depart="177.00" fromXY="-71.123798,42.351911" toXY="-71.10006093978882,42.36264779118595" />
    <trip id="1A8F41663D1ABEB9" type="bike" depart="178.00" fromXY="-71.10998779535294,42.36895180540729" toXY="-71.08903,42.36722" />
    <trip id="ADB12F0FBA23CEDA" type="bike" depart="180.00" fromXY="-71.094445,42.372969" toXY="-71.0873863200095,42.36412658996667" />
    <trip id="95A0E4FA2A2389C1" type="bike" depart="182.00" fromXY="-71.028658152,42.344873548" toXY="-71.03877,42.335741" />
    <trip id="3C1AD78049FECC5B" type="bike" depart="183.00" fromXY="-71.010610223,42.385195613" toXY="-71.01063068965232,42.385223935870535" />
    <trip id="03E8FFB96283E452" type="bike" depart="187.00" fromXY="-71.09812,42.386844" toXY="-71.0915669,42.3629016" />
    <trip id="3D5FDA9CC03B3468" type="bike" depart="187.00" fromXY="-71.064263,42.365673" toXY="-71.0915669,42.3629016" />
    <trip id="3C52F3FBBC57B085" type="bike" depart="189.00" fromXY="-71.10998779535294,42.36895180540729" toXY="-71.09670273977825,42.36135837662249" />
    <trip id="D6C87F1CD85AFC1F" type="bike" depart="189.00" fromXY="-71.062256,42.343749" toXY="-71.07648162175792,42.34474224772802" />
    <trip id="4AB8E19B3E783E03" type="bike" depart="202.00" fromXY="-71.02495,42.3334" toXY="-71.05979576244862,42.3598253979878" />
    <trip id="538FF8CC121DA09D" type="bike" depart="203.00" fromXY="-71.08634233665725,42.373079797934935" toXY="-71.10061883926392,42.34011512249236" />
    <trip id="5E96D4356F354DF7" type="bike" depart="204.00" fromXY="-71.11626680949485,42.33274392304887" toXY="-71.08065776545118,42.34652003998412" />
    <trip id="6D1EC44E486AF1B6" type="bike" depart="213.00" fromXY="-71.130516,42.397828" toXY="-71.123024,42.396969" />
    <trip id="4EFDB89B701DCC4D" type="bike" depart="219.00" fromXY="-71.08633603909765,42.36608797388682" toXY="-71.08634233665725,42.373079797934935" />
    <trip id="E6356663A199BD12" type="bike" depart="235.00" fromXY="-71.106172681,42.397860289" toXY="-71.108571,42.390413" />
    <trip id="2ECF578FF7065DBD" type="bike" depart="237.00" fromXY="-71.055547,42.352175" toXY="-71.05979576244862,42.3598253979878" />
    <trip id="1813F7D721A27F59" type="bike" depart="237.00" fromXY="-71.08634233665725,42.373079797934935" toXY="-71.07118962337152,42.36079296858265" />
    <trip id="778242CD9259F2F0" type="bike" depart="243.00" fromXY="-71.128513,42.357651" toXY="-71.03987016504107,42.341780891371904" />
    <trip id="BDA4509359EFF504" type="bike" depart="247.00" fromXY="-71.13022770741735,42.34953016890375" toXY="-71.064263,42.365673" />
    <trip id="99EA34D0D38664F3" type="bike" depart="249.00" fromXY="-71.108050227,42.417855859" toXY="-71.09651505947113,42.40721644126376" />
    <trip id="41F58474C1466D7A" type="bike" depart="249.00" fromXY="-71.1296752,42.3528376" toXY="-71.1296752,42.3528376" />
    <trip id="489643E3F58C222D" type="bike" depart="250.00" fromXY="-71.085954,42.348717" toXY="-71.07657015323639,42.34807412317439" />
    <trip id="1314B2500FE18A07" type="bike" depart="254.00" fromXY="-71.11305356025696,42.37250864997261" toXY="-71.1031,42.36507" />
    <trip id="B8C94EF7504454F3" type="bike" depart="259.00" fromXY="-71.10044184048091,42.36356498989399" toXY="-71.1182756971175,42.36426344063853" />
    <trip id="8C1636D9C357F58C" type="bike" depart="259.00" fromXY="-71.10407917767589,42.33462893055976" toXY="-71.090511,42.339202" />
    <trip id="5EF7BA972B4C65DF" type="bike" depart="266.00" fromXY="-71.15168806174552,42.34024644768889" toXY="-71.062679,42.352409" />
    <trip id="19A44B4DB9ABAB0D" type="bike" depart="271.00" fromXY="-71.0756166279316,42.35159662465317" toXY="-71.105301,42.347241" />
    <trip id="9C08941C468A72EF" type="bike" depart="274.00" fromXY="-71.095171,42.331184" toXY="-71.07306711393903,42.33639915372498" />
    <trip id="2F10F692C965CED2" type="bike" depart="277.00" fromXY="-71.090179,42.341814" toXY="-71.09670273977825,42.36135837662249" />
    <trip id="C54C33B01920FBE4" type="bike" depart="278.00" fromXY="-71.09540475672475,42.37964789967527" toXY="-71.090098,42.380078" />
    <trip id="73949D4959706862" type="bike" depart="279.00" fromXY="-71.055547,42.352175" toXY="-71.0885418,42.3664204" />
    <trip id="9397BEE6F0086EA6" type="bike" depart="281.00" fromXY="-71.056067,42.362811" toXY="-71.0582291708306,42.35533501941256" />
    <trip id="9E198C8882CFE1EE" type="bike" depart="286.00" fromXY="-71.12260755160605,42.39120971915856" toXY="-71.118579,42.373268" />
    <trip id="DA12D77DE3A3D19E" type="bike" depart="288.00" fromXY="-71.08995433905875,42.37207657915397" toXY="-71.114025,42.376369" />
    <trip id="166E0788794D6A99" type="bike" depart="290.00" fromXY="-71.08582377433777,42.3436658245146" toXY="-71.104412,42.370803" />
    <trip id="02E55AFD9B2E016A" type="bike" depart="292.00" fromXY="-71.15728851416861,42.28277901074054" toXY="-71.13672129828046,42.28634589486312" />
    <trip id="88F3366914FFDDE6" type="bike" depart="297.00" fromXY="-71.067027807,42.342981577" toXY="-71.053181,42.354659" />
    <trip id="3004FF69CFEA512D" type="bike" depart="299.00" fromXY="-71.060292,42.371848" toXY="-71.08065776545118,42.34652003998412" />
    <trip id="EE95DBD615E39FD5" type="bike" depart="312.00" fromXY="-71.07657015323639,42.34807412317439" toXY="-71.069849,42.356052" />
    <trip id="223CE32135421D1F" type="bike" depart="312.00" fromXY="-71.037502766,42.347964644" toXY="-71.050877,42.363871" />
    <trip id="2CFB414E57FC450A" type="bike" depart="312.00" fromXY="-71.130516,42.397828" toXY="-71.10286116600037,42.3374174845973" />
    <trip id="51A27ADAD2A7FDF2" type="bike" depart="316.00" fromXY="-71.05889977661718,42.31870274532011" toXY="-71.0724207387284,42.34954403114251" />
    <trip id="C118C62E1BF025BB" type="bike" depart="319.00" fromXY="-71.076198,42.371141" toXY="-71.09115600585936,42.3621312344991" />
    <trip id="EEF0F6D1A4970A1A" type="bike" depart="320.00" fromXY="-71.11901879310608,42.38674802045056" toXY="-71.10853672027588,42.383638948222654" />
    <trip id="86DB8DDFD90E5C11" type="bike" depart="321.00" fromXY="-71.13275302578586,42.34922469338298" toXY="-71.11903488636017,42.35169201885973" />
    <trip id="5912721FD776B784" type="bike" depart="324.00" fromXY="-71.06905996799469,42.37408991426522" toXY="-71.08822,42.3625" />
    <trip id="A997D4E96A8093B3" type="bike" depart="333.00" fromXY="-71.05979576244862,42.3598253979878" toXY="-71.0915669,42.3629016" />
    <trip id="F575E1D51272BC13" type="bike" depart="337.00" fromXY="-71.105301,42.347241" toXY="-71.06781138111728,42.35182806892068" />
    <trip id="98E884ED6EDC9B33" type="bike" depart="341.00" fromXY="-71.068607,42.378965" toXY="-71.07654601335526,42.366446738529454" />
    <trip id="223C721B4BE637CD" type="bike" depart="343.00" fromXY="-71.076198,42.371141" toXY="-71.09169,42.366277" />
    <trip id="EBCC3CA14AEA27F8" type="bike" depart="344.00" fromXY="-71.095171,42.331184" toXY="-71.090511,42.339202" />
    <trip id="8F8DC2E5B8C04F69" type="bike" depart="345.00" fromXY="-71.06166645884514,42.35668334969929" toXY="-71.076198,42.371141" />
    <trip id="575B2E9ACBC55E32" type="bike" depart="348.00" fromXY="-71.095116377,42.37958765" toXY="-71.10402522613185,42.38100143038052" />
    <trip id="231122746879D259" type="bike" depart="353.00" fromXY="-71.082521558,42.348845005" toXY="-71.04817356923377,42.35317809186252" />
    <trip id="808B7120B1921B43" type="bike" depart="361.00" fromXY="-71.07118962337152,42.36079296858265" toXY="-71.07657015323639,42.34807412317439" />
    <trip id="AE30902F1D41DEAB" type="bike" depart="361.00" fromXY="-71.114214,42.366621" toXY="-71.094445,42.372969" />
    <trip id="8A104C6D252BEE36" type="bike" depart="374.00" fromXY="-71.08336953450817,42.34135615767354" toXY="-71.08822,42.3625" />
    <trip id="7DF137229CE7B6C4" type="bike" depart="380.00" fromXY="-71.050877,42.363871" toXY="-71.053181,42.354659" />
    <trip id="3AA44AD61484E262" type="bike" depart="390.00" fromXY="-71.060292,42.371848" toXY="-71.06781138111728,42.35182806892068" />
    <trip id="A181D75E368EBE37" type="bike" depart="391.00" fromXY="-71.090511,42.339202" toXY="-71.0831107199192,42.36224178650923" />
    <trip id="C3F2F381E7B606C7" type="bike" depart="393.00" fromXY="-71.08903,42.36722" toXY="-71.07200495972165,42.37197678467975" />
    <trip id="773801F958959685" type="bike" depart="396.00" fromXY="-71.072146058,42.371877313" toXY="-71.094445,42.372969" />
    <trip id="8ECE953AF7881B04" type="bike" depart="401.00" fromXY="-71.03987016504107,42.341780891371904" toXY="-71.05426469875965,42.35849449039304" />
    <trip id="1C8B6D7BA79BDB8C" type="bike" depart="406.00" fromXY="-71.104412,42.370803" toXY="-71.08822,42.3625" />
    <trip id="EF907EC93EC337CE" type="bike" depart="406.00" fromXY="-71.0638403149278,42.34521562115022" toXY="-71.05426469875965,42.35849449039304" />
    <trip id="561F46E1C6C22204" type="bike" depart="408.00" fromXY="-71.03877,42.335741" toXY="-71.03877,42.335741" />
    <trip id="DC25B01A7E1D4E8E" type="bike" depart="408.00" fromXY="-71.07286870479584,42.35553628489709" toXY="-71.0804355052096,42.361619320766856" />
    <trip id="F851F2C95780394F" type="bike" depart="415.00" fromXY="-71.09930185605663,42.36860524248197" toXY="-71.1182756971175,42.36426344063853" />
    <trip id="13B60D1C832CBB15" type="bike" depart="419.00" fromXY="-71.052588344,42.344168186" toXY="-71.05656400803126,42.35294569782581" />
    <trip id="89ACC388BB8B528F" type="bike" depart="425.00" fromXY="-71.11305356025696,42.37250864997261" toXY="-71.07679277658461,42.367074071490926" />
    <trip id="3967833B88B1D0C9" type="bike" depart="431.00" fromXY="-71.21382214128971,42.354104081396585" toXY="-71.1242,42.368019" />
    <trip id="04626CD1663B3E05" type="bike" depart="436.00" fromXY="-71.10006093978882,42.36264779118595" toXY="-71.093198,42.3581" />
    <trip id="91A46D5E7EDFA865" type="bike" depart="436.00" fromXY="-71.14906518727366,42.40935395518158" toXY="-71.07657015323639,42.34807412317439" />
    <trip id="43A50923C1E93F89" type="bike" depart="443.00" fromXY="-71.07306711393903,42.33639915372498" toXY="-71.08822,42.3625" />
    <trip id="7855C2489A16B11C" type="bike" depart="454.00" fromXY="-71.094445,42.372969" toXY="-71.0756166279316,42.35159662465317" />
    <trip id="4A70F9C561539D8D" type="bike" depart="465.00" fromXY="-71.13421171095978,42.33985827126298" toXY="-71.105301,42.347241" />
    <trip id="FE020985E3B020B5" type="bike" depart="473.00" fromXY="-71.068607,42.378965" toXY="-71.06905996799469,42.37408991426522" />
    <trip id="ABC88B7010BD598E" type="bike" depart="476.00" fromXY="-71.069616,42.345392" toXY="-71.10998779535294,42.36895180540729" />
    <trip id="7D33DFE7541490C2" type="bike" depart="478.00" fromXY="-71.0839523,42.3817508" toXY="-71.048927,42.378338" />
    <trip id="BF987A06828DCA01" type="bike" depart="478.00" fromXY="-71.09936738,42.368541956" toXY="-71.0898108780384,42.35082680669095" />
    <trip id="2C7E7841121B69F7" type="bike" depart="480.00" fromXY="-71.1138716340065,42.357218503176526" toXY="-71.08822,42.3625" />
    <trip id="54DAA1710AC9363D" type="bike" depart="483.00" fromXY="-71.12590793383788,42.40087950159558" toXY="-71.139459,42.396105" />
    <trip id="817D8099DFF87873" type="bike" depart="484.00" fromXY="-71.10394477844238,42.35560121327927" toXY="-71.093198,42.3581" />
    <trip id="9D12A7780EF4037E" type="bike" depart="485.00" fromXY="-71.075720072,42.351610184" toXY="-71.0582291708306,42.35533501941256" />
    <trip id="77E03C7B736A84A2" type="bike" depart="486.00" fromXY="-71.074024796,42.338442564" toXY="-71.05656400803126,42.35294569782581" />
    <trip id="2758AE7F3E50A342" type="bike" depart="491.00" fromXY="-71.04622899561036,42.33595897943309" toXY="-71.04436084628105,42.35148193460858" />
    <trip id="1CE32B49562FA42B" type="bike" depart="495.00" fromXY="-71.10026478767395,42.37426713524931" toXY="-71.0875672,42.3636929" />
    <trip id="E7438B5A60E79ED9" type="bike" depart="498.00" fromXY="-71.10026478767395,42.37426713524931" toXY="-71.06975,42.339194" />
    <trip id="D90DF75DF2241570" type="bike" depart="500.00" fromXY="-71.03877,42.335741" toXY="-71.07329249382019,42.3511419825475" />
    <trip id="1A44CB4C45F0A132" type="bike" depart="503.00" fromXY="-71.06383498767171,42.374878467440965" toXY="-71.0724207387284,42.34954403114251" />
    <trip id="17F2F76372A05504" type="bike" depart="510.00" fromXY="-71.137313,42.353334" toXY="-71.06528744101524,42.36125721646537" />
    <trip id="34D9ECB92B65A61D" type="bike" depart="512.00" fromXY="-71.105587,42.392525" toXY="-71.12011306006025,42.396386809455" />
    <trip id="D7DD7ABD22163D1F" type="bike" depart="514.00" fromXY="-71.1084133386612,42.35766247889882" toXY="-71.09670273977825,42.36135837662249" />
    <trip id="63AD30E30EEFB881" type="bike" depart="522.00" fromXY="-71.11467361450195,42.34414898749529" toXY="-71.07118962337152,42.36079296858265" />
    <trip id="B3F6B65ED079BE7E" type="bike" depart="523.00" fromXY="-71.10026478767395,42.37426713524931" toXY="-71.105495,42.366426" />
    <trip id="B168B115E8DBD96C" type="bike" depart="530.00" fromXY="-71.097370982,42.349306464" toXY="-71.057629,42.35892" />
    <trip id="33430E1662E6AF43" type="bike" depart="535.00" fromXY="-71.107341,42.310579" toXY="-71.057629,42.35892" />
    <trip id="CDE92336DABA0CAF" type="bike" depart="535.00" fromXY="-71.10044184048091,42.36356498989399" toXY="-71.1182756971175,42.36426344063853" />
    <trip id="2408135E90DF0D8D" type="bike" depart="541.00" fromXY="-71.11687034368515,42.369239074859216" toXY="-71.10006093978882,42.36264779118595" />
    <trip id="4C7F22DBE16A7ECD" type="bike" depart="552.00" fromXY="-71.05979576244862,42.3598253979878" toXY="-71.0638403149278,42.34521562115022" />
    <trip id="B550759F7185A030" type="bike" depart="559.00" fromXY="-71.1138716340065,42.357218503176526" toXY="-71.10809952020645,42.36178043960605" />
    <trip id="892DF6B3126D8E1B" type="bike" depart="579.00" fromXY="-71.105301,42.347241" toXY="-71.10286116600037,42.3374174845973" />
    <trip id="610F0C28747846D4" type="bike" depart="582.00" fromXY="-71.12490355968475,42.3443517550051" toXY="-71.1065,42.338629" />
    <trip id="37488AB34537BB2C" type="bike" depart="586.00" fromXY="-71.0514432,42.3391085" toXY="-71.05426469875965,42.35849449039304" />
    <trip id="CDFC98E8642D3020" type="bike" depart="586.00" fromXY="-71.166491,42.35057" toXY="-71.09728209692548,42.34924376955301" />
    <trip id="4617794AF209AC7C" type="bike" depart="592.00" fromXY="-71.11305356025696,42.37250864997261" toXY="-71.10057324171066,42.36346469304347" />
    <trip id="2B64C1A07CCC97E2" type="bike" depart="592.00" fromXY="-71.10878612855231,42.38032335045416" toXY="-71.05481199938367,42.374124549426526" />
    <trip id="B09837174D198A33" type="bike" depart="592.00" fromXY="-71.1084133386612,42.35766247889882" toXY="-71.069957,42.369885" />
    <trip id="19B15541EE2F1757" type="bike" depart="595.00" fromXY="-71.08856523,42.366441488" toXY="-71.108279,42.350406" />
    <trip id="3662358E6842BB22" type="bike" depart="596.00" fromXY="-71.056664,42.317642" toXY="-71.05355408051764,42.32039374304257" />
    <trip id="86866A2DCE09792A" type="bike" depart="599.00" fromXY="-71.03764,42.3481" toXY="-71.057629,42.35892" />
    <trip id="B5AB161E1475E9B9" type="bike" depart="599.00" fromXY="-71.06068975823291,42.29963348842063" toXY="-71.062571,42.291718" />
    <trip id="6BEED52F99D9ED97" type="bike" depart="610.00" fromXY="-71.044143677,42.351340652" toXY="-71.05459745998814,42.35585435522005" />
    <trip id="56E13D5BA63560DC" type="bike" depart="610.00" fromXY="-71.09169,42.366277" toXY="-71.0831107199192,42.36224178650923" />
    <trip id="3B1A07B3351A683A" type="bike" depart="610.00" fromXY="-71.0514432,42.3391085" toXY="-71.055547,42.352175" />
    <trip id="F689C77DDD062470" type="bike" depart="611.00" fromXY="-71.10393404960632,42.35775309465199" toXY="-71.09115600585936,42.3621312344991" />
    <trip id="B163F0DC4836FB86" type="bike" depart="614.00" fromXY="-71.09759867191315,42.37119727759414" toXY="-71.07118962337152,42.36079296858265" />
    <trip id="D6D54A85EBBC913E" type="bike" depart="614.00" fromXY="-71.13426981498378,42.381650612901176" toXY="-71.0756166279316,42.35159662465317" />
    <trip id="DDD2B3C8C0FAB17B" type="bike" depart="617.00" fromXY="-71.10853672027588,42.383638948222654" toXY="-71.0915669,42.3629016" />
    <trip id="33AAFD0DDB1D46FB" type="bike" depart="617.00" fromXY="-71.105495,42.366426" toXY="-71.1182756971175,42.36426344063853" />
    <trip id="51D60A4DE6D871F1" type="bike" depart="623.00" fromXY="-71.038737297,42.335558772" toXY="-71.04436084628105,42.35148193460858" />
    <trip id="ECFB15A87803983E" type="bike" depart="623.00" fromXY="-71.05934903025626,42.36473898691789" toXY="-71.04817356923377,42.35317809186252" />
    <trip id="26D00E3DAC8A9DC7" type="bike" depart="625.00" fromXY="-71.10129475593567,42.35957320109044" toXY="-71.08495473861694,42.3624278429124" />
    <trip id="7F7EBBDC8C7086C9" type="bike" depart="629.00" fromXY="-71.1001680795016,42.34734473177431" toXY="-71.0885418,42.3664204" />
    <trip id="1839B8E5BEBF45BC" type="bike" depart="633.00" fromXY="-71.10878612855231,42.38032335045416" toXY="-71.063348,42.354979" />
    <trip id="EE8D93120897DC84" type="bike" depart="635.00" fromXY="-71.050877,42.363871" toXY="-71.05481199938367,42.374124549426526" />
    <trip id="21672C983A701657" type="bike" depart="643.00" fromXY="-71.10341902831351,42.37927324600841" toXY="-71.06209959843909,42.34942609892521" />
    <trip id="BAE296A0C37B2798" type="bike" depart="648.00" fromXY="-71.114249,42.300923" toXY="-71.104374,42.316966" />
    <trip id="8CFBA1B3BE8C2FA5" type="bike" depart="648.00" fromXY="-71.102518797,42.343663096" toXY="-71.057629,42.35892" />
    <trip id="24C7F8C765DAA04D" type="bike" depart="649.00" fromXY="-71.097548723,42.371212602" toXY="-71.104374,42.316966" />
    <trip id="D4F6F5F018429F20" type="bike" depart="653.00" fromXY="-71.07404083013535,42.338514601786" toXY="-71.0582291708306,42.35533501941256" />
    <trip id="E4AB71D5D465CF4C" type="bike" depart="659.00" fromXY="-71.058042645,42.355141163" toXY="-71.069957,42.369885" />
    <trip id="507BA8FF59FE9220" type="bike" depart="661.00" fromXY="-71.08974037706501,42.363003781560096" toXY="-71.08822,42.3625" />
    <trip id="753AF67EA85A3595" type="bike" depart="662.00" fromXY="-71.05481199938367,42.374124549426526" toXY="-71.0794677917329,42.349589423682445" />
    <trip id="387246F1659F36FB" type="bike" depart="665.00" fromXY="-71.10235286881107,42.34369055719748" toXY="-71.12188071012497,42.3722168027866" />
    <trip id="13D1AB69AAF0CB6E" type="bike" depart="668.00" fromXY="-71.056067,42.362811" toXY="-71.028664,42.344827" />
    <trip id="3BAC58A72C52225C" type="bike" depart="671.00" fromXY="-71.0915669,42.3629016" toXY="-71.10393404960632,42.35775309465199" />
    <trip id="76791AC95D6F1590" type="bike" depart="676.00" fromXY="-71.1296752,42.3528376" toXY="-71.097009,42.348706" />
    <trip id="E5257A0096F8657B" type="bike" depart="676.00" fromXY="-71.094494581,42.386574864" toXY="-71.0794677917329,42.349589423682445" />
    <trip id="50C3EED5C4585D46" type="bike" depart="677.00" fromXY="-71.07828140258789,42.38614141163957" toXY="-71.0875672,42.3636929" />
    <trip id="FB13628DD70E4D1F" type="bike" depart="680.00" fromXY="-71.087834001,42.336345196" toXY="-71.07306711393903,42.33639915372498" />
    <trip id="30D86A22E2444538" type="bike" depart="689.00" fromXY="-71.098136663,42.386897087" toXY="-71.08582377433777,42.3436658245146" />
    <trip id="ADC4039CB5CF2B35" type="bike" depart="692.00" fromXY="-71.055547,42.352175" toXY="-71.05979576244862,42.3598253979878" />
    <trip id="EF34E4A8A954C80D" type="bike" depart="696.00" fromXY="-71.107801199,42.306591988" toXY="-71.116865,42.377945" />
    <trip id="9FCDF0420189091D" type="bike" depart="700.00" fromXY="-71.05889977661718,42.31870274532011" toXY="-71.05355408051764,42.32039374304257" />
    <trip id="55399FC0FD57E0BF" type="bike" depart="701.00" fromXY="-71.07648162175792,42.34474224772802" toXY="-71.08678414955648,42.34740620525209" />
    <trip id="7CA52434F51537B9" type="bike" depart="704.00" fromXY="-71.06905996799469,42.37408991426522" toXY="-71.056067,42.362811" />
    <trip id="CC97AFBD82AB8933" type="bike" depart="704.00" fromXY="-71.12490355968475,42.3443517550051" toXY="-71.10057592391968,42.34949599514002" />
    <trip id="E16F85AEFFFB3CE1" type="bike" depart="705.00" fromXY="-71.0831107199192,42.36224178650923" toXY="-71.076198,42.371141" />
    <trip id="3E5088D33937D5D5" type="bike" depart="707.00" fromXY="-71.10809952020645,42.36178043960605" toXY="-71.08495473861694,42.3624278429124" />
    <trip id="4A006713279C4222" type="bike" depart="716.00" fromXY="-71.114249,42.300923" toXY="-71.07118962337152,42.36079296858265" />
    <trip id="336EB7CF0B505814" type="bike" depart="716.00" fromXY="-71.095171,42.331184" toXY="-71.08065776545118,42.34652003998412" />
    <trip id="38669363CE0CFBAD" type="bike" depart="721.00" fromXY="-71.10124647617339,42.33329254719182" toXY="-71.07118962337152,42.36079296858265" />
    <trip id="A6BB16CA5375B9DF" type="bike" depart="726.00" fromXY="-71.08582377433777,42.3436658245146" toXY="-71.07306711393903,42.33639915372498" />
    <trip id="8AF3C298829B00B0" type="bike" depart="728.00" fromXY="-71.0453599691391,42.347763454147454" toXY="-71.07036,42.352052" />
    <trip id="2120975FC2A13232" type="bike" depart="742.00" fromXY="-71.064263,42.365673" toXY="-71.064263,42.365673" />
    <trip id="A9FFB6D5056A140A" type="bike" depart="743.00" fromXY="-71.050877,42.363871" toXY="-71.04930013418198,42.351004495946704" />
    <trip id="6F827FB66C49F1E6" type="bike" depart="753.00" fromXY="-71.111698,42.363539" toXY="-71.0915669,42.3629016" />
    <trip id="5A8CC77514DA3073" type="bike" depart="754.00" fromXY="-71.100694,42.345733" toXY="-71.0885418,42.3664204" />
    <trip id="29C309FFF12AEEFA" type="bike" depart="757.00" fromXY="-71.04622899561036,42.33595897943309" toXY="-71.04569256305693,42.351586001198456" />
    <trip id="4FA85B71800FD7C0" type="bike" depart="764.00" fromXY="-71.056664,42.317642" toXY="-71.08678414955648,42.34740620525209" />
    <trip id="0E1BD89B71DF9C66" type="bike" depart="766.00" fromXY="-71.10809952020645,42.36178043960605" toXY="-71.0756166279316,42.35159662465317" />
    <trip id="91B134FF1385675B" type="bike" depart="766.00" fromXY="-71.1084133386612,42.35766247889882" toXY="-71.16708934307098,42.33987891612856" />
    <trip id="EF8A83825756606F" type="bike" depart="771.00" fromXY="-71.081198,42.332817" toXY="-71.0898108780384,42.35082680669095" />
    <trip id="91DF4D6ACD0692BA" type="bike" depart="771.00" fromXY="-71.055547,42.352175" toXY="-71.04569256305693,42.351586001198456" />
    <trip id="2A566F30A938FA4D" type="bike" depart="772.00" fromXY="-71.12590793383788,42.40087950159558" toXY="-71.08822,42.3625" />
    <trip id="6A57BD2E3F323BC5" type="bike" depart="779.00" fromXY="-71.069616,42.345392" toXY="-71.10129475593567,42.35957320109044" />