<?xml version="1.0" encoding="UTF-8"?>

<!-- generated on 2026-01-18 11:34:00 by Eclipse SUMO duarouter Version 1.20.0
<configuration xmlns:xsi="http://www.w3.org/2001/XMLSchema-instance" xsi:noNamespaceSchemaLocation="http://sumo.dlr.de/xsd/duarouterConfiguration.xsd">

    <input>
        <net-file value="boston.net.xml"/>
        <route-files value="trips.trips.xml"/>
    </input>

    <output>
        <output-file value="trips.rou.xml"/>
    </output>

    <processing>
        <mapmatch.distance value="5000"/>
    </processing>

    <report>
        <verbose value="true"/>
        <ignore-errors value="true"/>
    </report>

</configuration>
-->

<routes xmlns:xsi="http://www.w3.org/2001/XMLSchema-instance" xsi:noNamespaceSchemaLocation="http://sumo.dlr.de/xsd/routes_file.xsd">
    <vType id="bike" length="1.60" minGap="0.50" maxSpeed="5.50" accel="0.8" decel="1.5" sigma="0.5"/>
    <vehicle id="D8F970253FDD5495" type="bike" depart="5.00">
        <route edges="8996469#0"/>
    </vehicle>
    <vehicle id="DAE25189068746BA" type="bike" depart="6.00">
        <route edges="8996469#0"/>
    </vehicle>
    <vehicle id="D0B154604FCAEEF0" type="bike" depart="8.00">
        <route edges="8996469#0"/>
    </vehicle>
    <vehicle id="2EC9898C048308D7" type="bike" depart="22.00">
        <route edges="8996469#0"/>
    </vehicle>
    <vehicle id="D88E68B699F24E07" type="bike" depart="25.00">
        <route edges="8996469#0"/>
    </vehicle>
    <vehicle id="0AFBAB944C7667EB" type="bike" depart="27.00">
        <route edges="8996469#0"/>
    </vehicle>
    <vehicle id="00F19E9D706D52C5" type="bike" depart="29.00">
        <route edges="8996469#0"/>
    </vehicle>
    <vehicle id="22FB0825898CF509" type="bike" depart="42.00">
        <route edges="8996469#0"/>
    </vehicle>
    <vehicle id="4569512ED71B37B8" type="bike" depart="43.00">
        <route edges="8996469#0"/>
    </vehicle>
    <vehicle id="5C057D11EE82FA63" type="bike" depart="45.00">
        <route edges="8996469#0"/>
    </vehicle>
    <vehicle id="361ACC9394C6B359" type="bike" depart="47.00">
        <route edges="8996469#0"/>
    </vehicle>
    <vehicle id="825286BB8AC98192" type="bike" depart="51.00">
        <route edges="8996469#0"/>
    </vehicle>
    <vehicle id="341BFF15334B8C89" type="bike" depart="54.00">
        <route edges="8996469#0"/>
    </vehicle>
    <vehicle id="B447FBE098802857" type="bike" depart="77.00">
        <route edges="8996469#0"/>
    </vehicle>
    <vehicle id="FB58D8E29A6441E1" type="bike" depart="86.00">
        <route edges="8996469#0"/>
    </vehicle>
    <vehicle id="305DED8F91F47E98" type="bike" depart="87.00">
        <route edges="8996469#0"/>
    </vehicle>
    <vehicle id="52AAB8D9D4E8D9DA" type="bike" depart="87.00">
        <route edges="8996469#0"/>
    </vehicle>
    <vehicle id="5C8486BBEFE38918" type="bike" depart="94.00">
        <route edges="8996469#0"/>
    </vehicle>
    <vehicle id="157F2C7072C422E1" type="bike" depart="94.00">
        <route edges="8996469#0"/>
    </vehicle>
    <vehicle id="21A0BDE4EB3A0E60" type="bike" depart="95.00">
        <route edges="8996469#0"/>
    </vehicle>
    <vehicle id="CF063E6CDBF0CAC7" type="bike" depart="96.00">
        <route edges="8996469#0"/>
    </vehicle>
    <vehicle id="3062D506CC8B5E0A" type="bike" depart="101.00">
        <route edges="8996469#0"/>
    </vehicle>
    <vehicle id="A7B7A7AC299D0259" type="bike" depart="102.00">
        <route edges="8996469#0"/>
    </vehicle>
    <vehicle id="2AB4AF0AE0A0EDA8" type="bike" depart="103.00">
        <route edges="8996469#0"/>
    </vehicle>
    <vehicle id="6E760B66E61BE368" type="bike" depart="104.00">
        <route edges="8996469#0"/>
    </vehicle>
    <vehicle id="5BFC226F833AF986" type="bike" depart="106.00">
        <route edges="8996469#0"/>
    </vehicle>
    <vehicle id="E1776DB957DC25A6" type="bike" depart="106.00">
        <route edges="8996469#0"/>
    </vehicle>
    <vehicle id="D75AFE34E0B1EE14" type="bike" depart="107.00">
        <route edges="8996469#0"/>
    </vehicle>
    <vehicle id="9E8FFFE61852D138" type="bike" depart="111.00">
        <route edges="8996469#0"/>
    </vehicle>
    <vehicle id="D6512338DEAEE300" type="bike" depart="116.00">
        <route edges="8996469#0"/>
    </vehicle>
    <vehicle id="2B6BF7CC11AB3A6A" type="bike" depart="119.00">
        <route edges="8996469#0"/>
    </vehicle>
    <vehicle id="B458E8849D8207BB" type="bike" depart="126.00">
        <route edges="8996469#0"/>
    </vehicle>
    <vehicle id="94EDE17F6F7DA7F3" type="bike" depart="128.00">
        <route edges="8996469#0"/>
    </vehicle>
    <vehicle id="2CE67AB2924202B7" type="bike" depart="130.00">
        <route edges="8996469#0"/>
    </vehicle>
    <vehicle id="E11B8E31D9F6D51C" type="bike" depart="137.00">
        <route edges="8996469#0"/>
    </vehicle>
    <vehicle id="40CA17D2156015E2" type="bike" depart="140.00">
        <route edges="8996469#0"/>
    </vehicle>
    <vehicle id="639855E4CB35B57A" type="bike" depart="140.00">
        <route edges="8996469#0"/>
    </vehicle>
    <vehicle id="23CD6DDD575FF617" type="bike" depart="141.00">
        <route edges="8996469#0"/>
    </vehicle>
    <vehicle id="CAF42D0B570EBF6A" type="bike" depart="144.00">
        <route edges="8996469#0"/>
    </vehicle>
    <vehicle id="C6F196FB0B287FF3" type="bike" depart="152.00">
        <route edges="8996469#0"/>
    </vehicle>
    <vehicle id="59702A586678F649" type="bike" depart="158.00">
        <route edges="8996469#0"/>
    </vehicle>
    <vehicle id="3B5D7A2CFA9B8553" type="bike" depart="160.00">
        <route edges="8996469#0"/>
    </vehicle>
    <vehicle id="1A92B693ABECC587" type="bike" depart="161.00">
        <route edges="8996469#0"/>
    </vehicle>
    <vehicle id="659A4A085CBB34FC" type="bike" depart="169.00">
        <route edges="8996469#0"/>
    </vehicle>
    <vehicle id="5F8778A530192BE3" type="bike" depart="171.00">
        <route edges="8996469#0"/>
    </vehicle>
    <vehicle id="C87FFF9EB91B2C5D" type="bike" depart="171.00">
        <route edges="8996469#0"/>
    </vehicle>
    <vehicle id="0CC7819288D820DF" type="bike" depart="174.00">
        <route edges="8996469#0"/>
    </vehicle>
    <vehicle id="58AD745915B13D1A" type="bike" depart="177.00">
        <route edges="8996469#0"/>
    </vehicle>
    <vehicle id="4A5AD7A8368E0DEE" type="bike" depart="177.00">
        <route edges="8996469#0"/>
    </vehicle>
    <vehicle id="1A8F41663D1ABEB9" type="bike" depart="178.00">
        <route edges="8996469#0"/>
    </vehicle>
    <vehicle id="ADB12F0FBA23CEDA" type="bike" depart="180.00">
        <route edges="8996469#0"/>
    </vehicle>
    <vehicle id="95A0E4FA2A2389C1" type="bike" depart="182.00">
        <route edges="8996469#0"/>
    </vehicle>
    <vehicle id="3C1AD78049FECC5B" type="bike" depart="183.00">
        <route edges="8996469#0"/>
    </vehicle>
    <vehicle id="03E8FFB96283E452" type="bike" depart="187.00">
        <route edges="8996469#0"/>
    </vehicle>
    <vehicle id="3D5FDA9CC03B3468" type="bike" depart="187.00">
        <route edges="8996469#0"/>
    </vehicle>
    <vehicle id="3C52F3FBBC57B085" type="bike" depart="189.00">
        <route edges="8996469#0"/>
    </vehicle>
    <vehicle id="D6C87F1CD85AFC1F" type="bike" depart="189.00">
        <route edges="8996469#0"/>
    </vehicle>
    <vehicle id="4AB8E19B3E783E03" type="bike" depart="202.00">
        <route edges="8996469#0"/>
    </vehicle>
    <vehicle id="538FF8CC121DA09D" type="bike" depart="203.00">
        <route edges="8996469#0"/>
    </vehicle>
    <vehicle id="5E96D4356F354DF7" type="bike" depart="204.00">
        <route edges="8996469#0"/>
    </vehicle>
    <vehicle id="6D1EC44E486AF1B6" type="bike" depart="213.00">
        <route edges="8996469#0"/>
    </vehicle>
    <vehicle id="4EFDB89B701DCC4D" type="bike" depart="219.00">
        <route edges="8996469#0"/>
    </vehicle>
    <vehicle id="E6356663A199BD12" type="bike" depart="235.00">
        <route edges="8996469#0"/>
    </vehicle>
    <vehicle id="2ECF578FF7065DBD" type="bike" depart="237.00">
        <route edges="8996469#0"/>
    </vehicle>
    <vehicle id="1813F7D721A27F59" type="bike" depart="237.00">
        <route edges="8996469#0"/>
    </vehicle>
    <vehicle id="778242CD9259F2F0" type="bike" depart="243.00">
        <route edges="8996469#0"/>
    </vehicle>
    <vehicle id="BDA4509359EFF504" type="bike" depart="247.00">
        <route edges="8996469#0"/>
    </vehicle>
    <vehicle id="99EA34D0D38664F3" type="bike" depart="249.00">
        <route edges="8996469#0"/>
    </vehicle>
    <vehicle id="41F58474C1466D7A" type="bike" depart="249.00">
        <route edges="8996469#0"/>
    </vehicle>
    <vehicle id="489643E3F58C222D" type="bike" depart="250.00">
        <route edges="8996469#0"/>
    </vehicle>
    <vehicle id="1314B2500FE18A07" type="bike" depart="254.00">
        <route edges="8996469#0"/>
    </vehicle>
    <vehicle id="B8C94EF7504454F3" type="bike" depart="259.00">
        <route edges="8996469#0"/>
    </vehicle>
    <vehicle id="8C1636D9C357F58C" type="bike" depart="259.00">
        <route edges="8996469#0"/>
    </vehicle>
    <vehicle id="5EF7BA972B4C65DF" type="bike" depart="266.00">
        <route edges="8996469#0"/>
    </vehicle>
    <vehicle id="19A44B4DB9ABAB0D" type="bike" depart="271.00">
        <route edges="8996469#0"/>
    </vehicle>
    <vehicle id="9C08941C468A72EF" type="bike" depart="274.00">
        <route edges="8996469#0"/>
    </vehicle>
    <vehicle id="2F10F692C965CED2" type="bike" depart="277.00">
        <route edges="8996469#0"/>
    </vehicle>
    <vehicle id="C54C33B01920FBE4" type="bike" depart="278.00">
        <route edges="8996469#0"/>
    </vehicle>
    <vehicle id="73949D4959706862" type="bike" depart="279.00">
        <route edges="8996469#0"/>
    </vehicle>
    <vehicle id="9397BEE6F0086EA6" type="bike" depart="281.00">
        <route edges="8996469#0"/>
    </vehicle>
    <vehicle id="9E198C8882CFE1EE" type="bike" depart="286.00">
        <route edges="8996469#0"/>
    </vehicle>
    <vehicle id="DA12D77DE3A3D19E" type="bike" depart="288.00">
        <route edges="8996469#0"/>
    </vehicle>
    <vehicle id="166E0788794D6A99" type="bike" depart="290.00">
        <route edges="8996469#0"/>
    </vehicle>
    <vehicle id="02E55AFD9B2E016A" type="bike" depart="292.00">
        <route edges="8996469#0"/>
    </vehicle>
    <vehicle id="88F3366914FFDDE6" type="bike" depart="297.00">
        <route edges="8996469#0"/>
    </vehicle>
    <vehicle id="3004FF69CFEA512D" type="bike" depart="299.00">
        <route edges="8996469#0"/>
    </vehicle>
    <vehicle id="EE95DBD615E39FD5" type="bike" depart="312.00">
        <route edges="8996469#0"/>
    </vehicle>
    <vehicle id="223CE32135421D1F" type="bike" depart="312.00">
        <route edges="8996469#0"/>
    </vehicle>
    <vehicle id="2CFB414E57FC450A" type="bike" depart="312.00">
        <route edges="8996469#0"/>
    </vehicle>
    <vehicle id="51A27ADAD2A7FDF2" type="bike" depart="316.00">
        <route edges="8996469#0"/>
    </vehicle>
    <vehicle id="C118C62E1BF025BB" type="bike" depart="319.00">
        <route edges="8996469#0"/>
    </vehicle>
    <vehicle id="EEF0F6D1A4970A1A" type="bike" depart="320.00">
        <route edges="8996469#0"/>
    </vehicle>
    <vehicle id="86DB8DDFD90E5C11" type="bike" depart="321.00">
        <route edges="8996469#0"/>
    </vehicle>
    <vehicle id="5912721FD776B784" type="bike" depart="324.00">
        <route edges="8996469#0"/>
    </vehicle>
    <vehicle id="A997D4E96A8093B3" type="bike" depart="333.00">
        <route edges="8996469#0"/>
    </vehicle>
    <vehicle id="F575E1D51272BC13" type="bike" depart="337.00">
        <route edges="8996469#0"/>
    </vehicle>
    <vehicle id="98E884ED6EDC9B33" type="bike" depart="341.00">
        <route edges="8996469#0"/>
    </vehicle>
    <vehicle id="223C721B4BE637CD" type="bike" depart="343.00">
        <route edges="8996469#0"/>
    </vehicle>
    <vehicle id="EBCC3CA14AEA27F8" type="bike" depart="344.00">
        <route edges="8996469#0"/>
    </vehicle>
    <vehicle id="8F8DC2E5B8C04F69" type="bike" depart="345.00">
        <route edges="8996469#0"/>
    </vehicle>
    <vehicle id="575B2E9ACBC55E32" type="bike" depart="348.00">
        <route edges="8996469#0"/>
    </vehicle>
    <vehicle id="231122746879D259" type="bike" depart="353.00">
        <route edges="8996469#0"/>
    </vehicle>
    <vehicle id="808B7120B1921B43" type="bike" depart="361.00">
        <route edges="8996469#0"/>
    </vehicle>
    <vehicle id="AE30902F1D41DEAB" type="bike" depart="361.00">
        <route edges="8996469#0"/>
    </vehicle>
    <vehicle id="8A104C6D252BEE36" type="bike" depart="374.00">
        <route edges="8996469#0"/>
    </vehicle>
    <vehicle id="7DF137229CE7B6C4" type="bike" depart="380.00">
        <route edges="8996469#0"/>
    </vehicle>
    <vehicle id="3AA44AD61484E262" type="bike" depart="390.00">
        <route edges="8996469#0"/>
    </vehicle>
    <vehicle id="A181D75E368EBE37" type="bike" depart="391.00">
        <route edges="8996469#0"/>
    </vehicle>
    <vehicle id="C3F2F381E7B606C7" type="bike" depart="393.00">
        <route edges="8996469#0"/>
    </vehicle>
    <vehicle id="773801F958959685" type="bike" depart="396.00">
        <route edges="8996469#0"/>
    </vehicle>
    <vehicle id="8ECE953AF7881B04" type="bike" depart="401.00">
        <route edges="8996469#0"/>
    </vehicle>
    <vehicle id="1C8B6D7BA79BDB8C" type="bike" depart="406.00">
        <route edges="8996469#0"/>
    </vehicle>
    <vehicle id="EF907EC93EC337CE" type="bike" depart="406.00">
        <route edges="8996469#0"/>
    </vehicle>
    <vehicle id="561F46E1C6C22204" type="bike" depart="408.00">
        <route edges="8996469#0"/>
    </vehicle>
    <vehicle id="DC25B01A7E1D4E8E" type="bike" depart="408.00">
        <route edges="8996469#0"/>
    </vehicle>
    <vehicle id="F851F2C95780394F" type="bike" depart="415.00">
        <route edges="8996469#0"/>
    </vehicle>
    <vehicle id="13B60D1C832CBB15" type="bike" depart="419.00">
        <route edges="8996469#0"/>
    </vehicle>
    <vehicle id="89ACC388BB8B528F" type="bike" depart="425.00">
        <route edges="8996469#0"/>
    </vehicle>
    <vehicle id="3967833B88B1D0C9" type="bike" depart="431.00">
        <route edges="8996469#0"/>
    </vehicle>
    <vehicle id="04626CD1663B3E05" type="bike" depart="436.00">
        <route edges="8996469#0"/>
    </vehicle>
    <vehicle id="91A46D5E7EDFA865" type="bike" depart="436.00">
        <route edges="8996469#0"/>
    </vehicle>
    <vehicle id="43A50923C1E93F89" type="bike" depart="443.00">
        <route edges="8996469#0"/>
    </vehicle>
    <vehicle id="7855C2489A16B11C" type="bike" depart="454.00">
        <route edges="8996469#0"/>
    </vehicle>
    <vehicle id="4A70F9C561539D8D" type="bike" depart="465.00">
        <route edges="8996469#0"/>
    </vehicle>
    <vehicle id="FE020985E3B020B5" type="bike" depart="473.00">
        <route edges="8996469#0"/>
    </vehicle>
    <vehicle id="ABC88B7010BD598E" type="bike" depart="476.00">
        <route edges="8996469#0"/>
    </vehicle>
    <vehicle id="7D33DFE7541490C2" type="bike" depart="478.00">
        <route edges="8996469#0"/>
    </vehicle>
    <vehicle id="BF987A06828DCA01" type="bike" depart="478.00">
        <route edges="8996469#0"/>
    </vehicle>
    <vehicle id="2C7E7841121B69F7" type="bike" depart="480.00">
        <route edges="8996469#0"/>
    </vehicle>
    <vehicle id="54DAA1710AC9363D" type="bike" depart="483.00">
        <route edges="8996469#0"/>
    </vehicle>
    <vehicle id="817D8099DFF87873" type="bike" depart="484.00">
        <route edges="8996469#0"/>
    </vehicle>
    <vehicle id="9D12A7780EF4037E" type="bike" depart="485.00">
        <route edges="8996469#0"/>
    </vehicle>
    <vehicle id="77E03C7B736A84A2" type="bike" depart="486.00">
        <route edges="8996469#0"/>
    </vehicle>
    <vehicle id="2758AE7F3E50A342" type="bike" depart="491.00">
        <route edges="8996469#0"/>
    </vehicle>
    <vehicle id="1CE32B49562FA42B" type="bike" depart="495.00">
        <route edges="8996469#0"/>
    </vehicle>
    <vehicle id="E7438B5A60E79ED9" type="bike" depart="498.00">
        <route edges="8996469#0"/>
    </vehicle>
    <vehicle id="D90DF75DF2241570" type="bike" depart="500.00">
        <route edges="8996469#0"/>
    </vehicle>
    <vehicle id="1A44CB4C45F0A132" type="bike" depart="503.00">
        <route edges="8996469#0"/>
    </vehicle>
    <vehicle id="17F2F76372A05504" type="bike" depart="510.00">
        <route edges="8996469#0"/>
    </vehicle>
    <vehicle id="34D9ECB92B65A61D" type="bike" depart="512.00">
        <route edges="8996469#0"/>
    </vehicle>
    <vehicle id="D7DD7ABD22163D1F" type="bike" depart="514.00">
        <route edges="8996469#0"/>
    </vehicle>
    <vehicle id="63AD30E30EEFB881" type="bike" depart="522.00">
        <route edges="8996469#0"/>
    </vehicle>
    <vehicle id="B3F6B65ED079BE7E" type="bike" depart="523.00">
        <route edges="8996469#0"/>
    </vehicle>
    <vehicle id="B168B115E8DBD96C" type="bike" depart="530.00">
        <route edges="8996469#0"/>
    </vehicle>
    <vehicle id="33430E1662E6AF43" type="bike" depart="535.00">
        <route edges="8996469#0"/>
    </vehicle>
    <vehicle id="CDE92336DABA0CAF" type="bike" depart="535.00">
        <route edges="8996469#0"/>
    </vehicle>
    <vehicle id="2408135E90DF0D8D" type="bike" depart="541.00">
        <route edges="8996469#0"/>
    </vehicle>
    <vehicle id="4C7F22DBE16A7ECD" type="bike" depart="552.00">
        <route edges="8996469#0"/>
    </vehicle>
    <vehicle id="B550759F7185A030" type="bike" depart="559.00">
        <route edges="8996469#0"/>
    </vehicle>
    <vehicle id="892DF6B3126D8E1B" type="bike" depart="579.00">
        <route edges="8996469#0"/>
    </vehicle>
    <vehicle id="610F0C28747846D4" type="bike" depart="582.00">
        <route edges="8996469#0"/>
    </vehicle>
    <vehicle id="37488AB34537BB2C" type="bike" depart="586.00">
        <route edges="8996469#0"/>
    </vehicle>
    <vehicle id="CDFC98E8642D3020" type="bike" depart="586.00">
        <route edges="8996469#0"/>
    </vehicle>
    <vehicle id="4617794AF209AC7C" type="bike" depart="592.00">
        <route edges="8996469#0"/>
    </vehicle>
    <vehicle id="2B64C1A07CCC97E2" type="bike" depart="592.00">
        <route edges="8996469#0"/>
    </vehicle>
    <vehicle id="B09837174D198A33" type="bike" depart="592.00">
        <route edges="8996469#0"/>
    </vehicle>
    <vehicle id="19B15541EE2F1757" type="bike" depart="595.00">
        <route edges="8996469#0"/>
    </vehicle>
    <vehicle id="3662358E6842BB22" type="bike" depart="596.00">
        <route edges="8996469#0"/>
    </vehicle>
    <vehicle id="86866A2DCE09792A" type="bike" depart="599.00">
        <route edges="8996469#0"/>
    </vehicle>
    <vehicle id="B5AB161E1475E9B9" type="bike" depart="599.00">
        <route edges="8996469#0"/>
    </vehicle>
    <vehicle id="6BEED52F99D9ED97" type="bike" depart="610.00">
        <route edges="8996469#0"/>
    </vehicle>
    <vehicle id="56E13D5BA63560DC" type="bike" depart="610.00">
        <route edges="8996469#0"/>
    </vehicle>
    <vehicle id="3B1A07B3351A683A" type="bike" depart="610.00">
        <route edges="8996469#0"/>
    </vehicle>
    <vehicle id="F689C77DDD062470" type="bike" depart="611.00">
        <route edges="8996469#0"/>
    </vehicle>
    <vehicle id="B163F0DC4836FB86" type="bike" depart="614.00">
        <route edges="8996469#0"/>
    </vehicle>
    <vehicle id="D6D54A85EBBC913E" type="bike" depart="614.00">
        <route edges="8996469#0"/>
    </vehicle>
    <vehicle id="DDD2B3C8C0FAB17B" type="bike" depart="617.00">
        <route edges="8996469#0"/>
    </vehicle>
    <vehicle id="33AAFD0DDB1D46FB" type="bike" depart="617.00">
        <route edges="8996469#0"/>
    </vehicle>
    <vehicle id="51D60A4DE6D871F1" type="bike" depart="623.00">
        <route edges="8996469#0"/>
    </vehicle>
    <vehicle id="ECFB15A87803983E" type="bike" depart="623.00">
        <route edges="8996469#0"/>
    </vehicle>
    <vehicle id="26D00E3DAC8A9DC7" type="bike" depart="625.00">
        <route edges="8996469#0"/>
    </vehicle>
    <vehicle id="7F7EBBDC8C7086C9" type="bike" depart="629.00">
        <route edges="8996469#0"/>
    </vehicle>
    <vehicle id="1839B8E5BEBF45BC" type="bike" depart="633.00">
        <route edges="8996469#0"/>
    </vehicle>
    <vehicle id="EE8D93120897DC84" type="bike" depart="635.00">
        <route edges="8996469#0"/>
    </vehicle>
    <vehicle id="21672C983A701657" type="bike" depart="643.00">
        <route edges="8996469#0"/>
    </vehicle>
    <vehicle id="BAE296A0C37B2798" type="bike" depart="648.00">
        <route edges="8996469#0"/>
    </vehicle>
    <vehicle id="8CFBA1B3BE8C2FA5" type="bike" depart="648.00">
        <route edges="8996469#0"/>
    </vehicle>
    <vehicle id="24C7F8C765DAA04D" type="bike" depart="649.00">
        <route edges="8996469#0"/>
    </vehicle>
    <vehicle id="D4F6F5F018429F20" type="bike" depart="653.00">
        <route edges="8996469#0"/>
    </vehicle>
    <vehicle id="E4AB71D5D465CF4C" type="bike" depart="659.00">
        <route edges="8996469#0"/>
    </vehicle>
    <vehicle id="507BA8FF59FE9220" type="bike" depart="661.00">
        <route edges="8996469#0"/>
    </vehicle>
    <vehicle id="753AF67EA85A3595" type="bike" depart="662.00">
        <route edges="8996469#0"/>
    </vehicle>
    <vehicle id="387246F1659F36FB" type="bike" depart="665.00">
        <route edges="8996469#0"/>
    </vehicle>
    <vehicle id="13D1AB69AAF0CB6E" type="bike" depart="668.00">
        <route edges="8996469#0"/>
    </vehicle>
    <vehicle id="3BAC58A72C52225C" type="bike" depart="671.00">
        <route edges="8996469#0"/>
    </vehicle>
    <vehicle id="76791AC95D6F1590" type="bike" depart="676.00">
        <route edges="8996469#0"/>
    </vehicle>
    <vehicle id="E5257A0096F8657B" type="bike" depart="676.00">
        <route edges="8996469#0"/>
    </vehicle>
    <vehicle id="50C3EED5C4585D46" type="bike" depart="677.00">
        <route edges="8996469#0"/>
    </vehicle>
    <vehicle id="FB13628DD70E4D1F" type="bike" depart="680.00">
        <route edges="8996469#0"/>
    </vehicle>
    <vehicle id="30D86A22E2444538" type="bike" depart="689.00">
        <route edges="8996469#0"/>
    </vehicle>
    <vehicle id="ADC4039CB5CF2B35" type="bike" depart="692.00">
        <route edges="8996469#0"/>
    </vehicle>
    <vehicle id="EF34E4A8A954C80D" type="bike" depart="696.00">
        <route edges="8996469#0"/>
    </vehicle>
    <vehicle id="9FCDF0420189091D" type="bike" depart="700.00">
        <route edges="8996469#0"/>
    </vehicle>
    <vehicle id="55399FC0FD57E0BF" type="bike" depart="701.00">
        <route edges="8996469#0"/>
    </vehicle>
    <vehicle id="7CA52434F51537B9" type="bike" depart="704.00">
        <route edges="8996469#0"/>
    </vehicle>
    <vehicle id="CC97AFBD82AB8933" type="bike" depart="704.00">
        <route edges="8996469#0"/>
    </vehicle>
    <vehicle id="E16F85AEFFFB3CE1" type="bike" depart="705.00">
        <route edges="8996469#0"/>
    </vehicle>
    <vehicle id="3E5088D33937D5D5" type="bike" depart="707.00">
        <route edges="8996469#0"/>
    </vehicle>
    <vehicle id="4A006713279C4222" type="bike" depart="716.00">
        <route edges="8996469#0"/>
    </vehicle>
    <vehicle id="336EB7CF0B505814" type="bike" depart="716.00">
        <route edges="8996469#0"/>
    </vehicle>
    <vehicle id="38669363CE0CFBAD" type="bike" depart="721.00">
        <route edges="8996469#0"/>
    </vehicle>
    <vehicle id="A6BB16CA5375B9DF" type="bike" depart="726.00">
        <route edges="8996469#0"/>
    </vehicle>
    <vehicle id="8AF3C298829B00B0" type="bike" depart="728.00">
        <route edges="8996469#0"/>
    </vehicle>
    <vehicle id="2120975FC2A13232" type="bike" depart="742.00">
        <route edges="8996469#0"/>
    </vehicle>
    <vehicle id="A9FFB6D5056A140A" type="bike" depart="743.00">
        <route edges="8996469#0"/>
    </vehicle>
    <vehicle id="6F827FB66C49F1E6" type="bike" depart="753.00">
        <route edges="8996469#0"/>
    </vehicle>
    <vehicle id="5A8CC77514DA3073" type="bike" depart="754.00">
        <route edges="8996469#0"/>
    </vehicle>
    <vehicle id="29C309FFF12AEEFA" type="bike" depart="757.00">
        <route edges="8996469#0"/>
    </vehicle>
    <vehicle id="4FA85B71800FD7C0" type="bike" depart="764.00">
        <route edges="8996469#0"/>
    </vehicle>
    <vehicle id="0E1BD89B71DF9C66" type="bike" depart="766.00">
        <route edges="8996469#0"/>
    </vehicle>
    <vehicle id="91B134FF1385675B" type="bike" depart="766.00">
        <route edges="8996469#0"/>
    </vehicle>
    <vehicle id="EF8A83825756606F" type="bike" depart="771.00">
        <route edges="8996469#0"/>
    </vehicle>
    <vehicle id="91DF4D6ACD0692BA" type="bike" depart="771.00">
        <route edges="8996469#0"/>
    </vehicle>
    <vehicle id="2A566F30A938FA4D" type="bike" depart="772.00">
        <route edges="8996469#0"/>
    </vehicle>
    <vehicle id="6A57BD2E3F323BC5" type="bike" depart="779.00">
        <route edges="8996469#0"/>
    </vehicle>
    <vehicle id="BC64C07EA4D5EF57" type="bike" depart="780.00">
        <route edges="8996469#0"/>
    </vehicle>
    <vehicle id="21B7955AE0B01A72" type="bike" depart="782.00">
        <route edges="8996469#0"/>
    </vehicle>
    <vehicle id="5C07F8A8A1402B4D" type="bike" depart="795.00">
        <route edges="8996469#0"/>
    </vehicle>
    <vehicle id="5BF4BBEF1C5A8C79" type="bike" depart="796.00">
        <route edges="8996469#0"/>
    </vehicle>
    <vehicle id="532686F2671AC67D" type="bike" depart="797.00">
        <route edges="8996469#0"/>
    </vehicle>
    <vehicle id="15DF2AC95E423ECC" type="bike" depart="800.00">
        <route edges="8996469#0"/>
    </vehicle>
    <vehicle id="6E2A4E5AF952D34B" type="bike" depart="801.00">
        <route edges="8996469#0"/>
    </vehicle>
    <vehicle id="CD7A69183DE40A75" type="bike" depart="802.00">
        <route edges="8996469#0"/>
    </vehicle>
    <vehicle id="84FAF006042E91FE" type="bike" depart="803.00">
        <route edges="8996469#0"/>
    </vehicle>
    <vehicle id="9D96F759E7947AC0" type="bike" depart="803.00">
        <route edges="8996469#0"/>
    </vehicle>
    <vehicle id="308E977BC64DF973" type="bike" depart="806.00">
        <route edges="8996469#0"/>
    </vehicle>
    <vehicle id="F5B517B3C38006F4" type="bike" depart="807.00">
        <route edges="8996469#0"/>
    </vehicle>
    <vehicle id="1E7CEDBFC497F1DA" type="bike" depart="808.00">
        <route edges="8996469#0"/>
    </vehicle>
    <vehicle id="1CA9581EBA10D48C" type="bike" depart="808.00">
        <route edges="8996469#0"/>
    </vehicle>
    <vehicle id="C991972B34A756B3" type="bike" depart="810.00">
        <route edges="8996469#0"/>
    </vehicle>
    <vehicle id="7B587DF50E752EB7" type="bike" depart="816.00">
        <route edges="8996469#0"/>
    </vehicle>
    <vehicle id="DAD765A55B76CD27" type="bike" depart="818.00">
        <route edges="8996469#0"/>
    </vehicle>
    <vehicle id="9B57FBA24E5F9229" type="bike" depart="821.00">
        <route edges="8996469#0"/>
    </vehicle>
    <vehicle id="3A40BA4114D0254A" type="bike" depart="822.00">
        <route edges="8996469#0"/>
    </vehicle>
    <vehicle id="CE5000DA37BB2386" type="bike" depart="827.00">
        <route edges="8996469#0"/>
    </vehicle>
    <vehicle id="D5CA772070E0F5F7" type="bike" depart="828.00">
        <route edges="8996469#0"/>
    </vehicle>
    <vehicle id="8C528A224E9815C5" type="bike" depart="829.00">
        <route edges="8996469#0"/>
    </vehicle>
    <vehicle id="CDD08EDB5E4A0EAB" type="bike" depart="830.00">
        <route edges="8996469#0"/>
    </vehicle>
    <vehicle id="58BC2E57DA561384" type="bike" depart="831.00">
        <route edges="8996469#0"/>
    </vehicle>
    <vehicle id="DF3AAD7A5132F869" type="bike" depart="832.00">
        <route edges="8996469#0"/>
    </vehicle>
    <vehicle id="7258C75259F318B0" type="bike" depart="836.00">
        <route edges="8996469#0"/>
    </vehicle>
    <vehicle id="B2C242E87372E702" type="bike" depart="836.00">
        <route edges="8996469#0"/>
    </vehicle>
    <vehicle id="09547602C141177D" type="bike" depart="837.00">
        <route edges="8996469#0"/>
    </vehicle>
    <vehicle id="FF1452E83CAB7F0E" type="bike" depart="839.00">
        <route edges="8996469#0"/>
    </vehicle>
    <vehicle id="26B0C9F37F95075E" type="bike" depart="840.00">
        <route edges="8996469#0"/>
    </vehicle>
    <vehicle id="E518A67C07E47B28" type="bike" depart="845.00">
        <route edges="8996469#0"/>
    </vehicle>
    <vehicle id="40692769F1B84F41" type="bike" depart="847.00">
        <route edges="8996469#0"/>
    </vehicle>
    <vehicle id="4DAE362482BC6B65" type="bike" depart="847.00">
        <route edges="8996469#0"/>
    </vehicle>
    <vehicle id="A9F5AA419DAAD216" type="bike" depart="852.00">
        <route edges="8996469#0"/>
    </vehicle>
    <vehicle id="AC9B965781D19E15" type="bike" depart="854.00">
        <route edges="8996469#0"/>
    </vehicle>
    <vehicle id="615F117250687496" type="bike" depart="858.00">
        <route edges="8996469#0"/>
    </vehicle>
    <vehicle id="C1D5007A4607287F" type="bike" depart="859.00">
        <route edges="8996469#0"/>
    </vehicle>
    <vehicle id="61AA9E9BA2F4F437" type="bike" depart="862.00">
        <route edges="8996469#0"/>
    </vehicle>
    <vehicle id="B67C96D6E69ECD56" type="bike" depart="863.00">
        <route edges="8996469#0"/>
    </vehicle>
    <vehicle id="F34555B550BEE5EE" type="bike" depart="868.00">
        <route edges="8996469#0"/>
    </vehicle>